/*---------------------------------------------------------------------------*\
  =========                 |
  \\      /  F ield         | OpenFOAM: The Open Source CFD Toolbox
   \\    /   O peration     | Website:  https://openfoam.org
    \\  /    A nd           | Version:  7
     \\/     M anipulation  |
\*---------------------------------------------------------------------------*/
Build  : 7-63349425784a
Exec   : particleFoam
Date   : Jun 24 2021
Time   : 13:54:37
Host   : "boyao-desktop"
PID    : 665746
I/O    : uncollated
Case   : /home/boyao/C++/OpenFOAMObject/meshParticle/cylinderParticle
nProcs : 1
sigFpe : Enabling floating point exception trapping (FOAM_SIGFPE).
fileModificationChecking : Monitoring run-time modified files using timeStampMaster (fileModificationSkew 10)
allowSystemOperations : Allowing user-supplied system call operations

// * * * * * * * * * * * * * * * * * * * * * * * * * * * * * * * * * * * * * //
Create time

Create mesh for time = 0


SIMPLE: No convergence criteria found

Reading field T

Using dynamicCode for patch bottomWall on field T at line 33 in "/home/boyao/C++/OpenFOAMObject/meshParticle/cylinderParticle/0/T.boundaryField.bottomWall"
Reading transportProperties

Reading diffusivity DT

No finite volume options present
Reading reactionProperties

Number of reaction is 6

Calculating temperature distribution

Time = 0.01

diagonal:  Solving for rhos, Initial residual = 0, Final residual = 0, No Iterations 0
diagonal:  Solving for rhois, Initial residual = 0, Final residual = 0, No Iterations 0
diagonal:  Solving for rhoc, Initial residual = 0, Final residual = 0, No Iterations 0
diagonal:  Solving for rhoAr, Initial residual = 0, Final residual = 0, No Iterations 0
diagonal:  Solving for rhot1, Initial residual = 0, Final residual = 0, No Iterations 0
diagonal:  Solving for rhot2, Initial residual = 0, Final residual = 0, No Iterations 0
diagonal:  Solving for rhog, Initial residual = 0, Final residual = 0, No Iterations 0
GAMG:  Solving for T, Initial residual = 1, Final residual = 7.61471e-11, No Iterations 1
ExecutionTime = 0.02 s  ClockTime = 0 s

Time = 0.02

diagonal:  Solving for rhos, Initial residual = 0, Final residual = 0, No Iterations 0
diagonal:  Solving for rhois, Initial residual = 0, Final residual = 0, No Iterations 0
diagonal:  Solving for rhoc, Initial residual = 0, Final residual = 0, No Iterations 0
diagonal:  Solving for rhoAr, Initial residual = 0, Final residual = 0, No Iterations 0
diagonal:  Solving for rhot1, Initial residual = 0, Final residual = 0, No Iterations 0
diagonal:  Solving for rhot2, Initial residual = 0, Final residual = 0, No Iterations 0
diagonal:  Solving for rhog, Initial residual = 0, Final residual = 0, No Iterations 0
GAMG:  Solving for T, Initial residual = 0.34061, Final residual = 2.11403e-11, No Iterations 1
ExecutionTime = 0.02 s  ClockTime = 0 s

Time = 0.03

diagonal:  Solving for rhos, Initial residual = 0, Final residual = 0, No Iterations 0
diagonal:  Solving for rhois, Initial residual = 0, Final residual = 0, No Iterations 0
diagonal:  Solving for rhoc, Initial residual = 0, Final residual = 0, No Iterations 0
diagonal:  Solving for rhoAr, Initial residual = 0, Final residual = 0, No Iterations 0
diagonal:  Solving for rhot1, Initial residual = 0, Final residual = 0, No Iterations 0
diagonal:  Solving for rhot2, Initial residual = 0, Final residual = 0, No Iterations 0
diagonal:  Solving for rhog, Initial residual = 0, Final residual = 0, No Iterations 0
GAMG:  Solving for T, Initial residual = 0.204675, Final residual = 1.09493e-11, No Iterations 1
ExecutionTime = 0.02 s  ClockTime = 0 s

Time = 0.04

diagonal:  Solving for rhos, Initial residual = 0, Final residual = 0, No Iterations 0
diagonal:  Solving for rhois, Initial residual = 0, Final residual = 0, No Iterations 0
diagonal:  Solving for rhoc, Initial residual = 0, Final residual = 0, No Iterations 0
diagonal:  Solving for rhoAr, Initial residual = 0, Final residual = 0, No Iterations 0
diagonal:  Solving for rhot1, Initial residual = 0, Final residual = 0, No Iterations 0
diagonal:  Solving for rhot2, Initial residual = 0, Final residual = 0, No Iterations 0
diagonal:  Solving for rhog, Initial residual = 0, Final residual = 0, No Iterations 0
GAMG:  Solving for T, Initial residual = 0.146015, Final residual = 7.97e-12, No Iterations 1
ExecutionTime = 0.02 s  ClockTime = 0 s

Time = 0.05

diagonal:  Solving for rhos, Initial residual = 0, Final residual = 0, No Iterations 0
diagonal:  Solving for rhois, Initial residual = 0, Final residual = 0, No Iterations 0
diagonal:  Solving for rhoc, Initial residual = 0, Final residual = 0, No Iterations 0
diagonal:  Solving for rhoAr, Initial residual = 0, Final residual = 0, No Iterations 0
diagonal:  Solving for rhot1, Initial residual = 0, Final residual = 0, No Iterations 0
diagonal:  Solving for rhot2, Initial residual = 0, Final residual = 0, No Iterations 0
diagonal:  Solving for rhog, Initial residual = 0, Final residual = 0, No Iterations 0
GAMG:  Solving for T, Initial residual = 0.1133, Final residual = 5.81415e-12, No Iterations 1
ExecutionTime = 0.02 s  ClockTime = 0 s

Time = 0.06

diagonal:  Solving for rhos, Initial residual = 0, Final residual = 0, No Iterations 0
diagonal:  Solving for rhois, Initial residual = 0, Final residual = 0, No Iterations 0
diagonal:  Solving for rhoc, Initial residual = 0, Final residual = 0, No Iterations 0
diagonal:  Solving for rhoAr, Initial residual = 0, Final residual = 0, No Iterations 0
diagonal:  Solving for rhot1, Initial residual = 0, Final residual = 0, No Iterations 0
diagonal:  Solving for rhot2, Initial residual = 0, Final residual = 0, No Iterations 0
diagonal:  Solving for rhog, Initial residual = 0, Final residual = 0, No Iterations 0
GAMG:  Solving for T, Initial residual = 0.0921926, Final residual = 4.37036e-12, No Iterations 1
ExecutionTime = 0.02 s  ClockTime = 0 s

Time = 0.07

diagonal:  Solving for rhos, Initial residual = 0, Final residual = 0, No Iterations 0
diagonal:  Solving for rhois, Initial residual = 0, Final residual = 0, No Iterations 0
diagonal:  Solving for rhoc, Initial residual = 0, Final residual = 0, No Iterations 0
diagonal:  Solving for rhoAr, Initial residual = 0, Final residual = 0, No Iterations 0
diagonal:  Solving for rhot1, Initial residual = 0, Final residual = 0, No Iterations 0
diagonal:  Solving for rhot2, Initial residual = 0, Final residual = 0, No Iterations 0
diagonal:  Solving for rhog, Initial residual = 0, Final residual = 0, No Iterations 0
GAMG:  Solving for T, Initial residual = 0.0775734, Final residual = 3.34323e-12, No Iterations 1
ExecutionTime = 0.03 s  ClockTime = 0 s

Time = 0.08

diagonal:  Solving for rhos, Initial residual = 0, Final residual = 0, No Iterations 0
diagonal:  Solving for rhois, Initial residual = 0, Final residual = 0, No Iterations 0
diagonal:  Solving for rhoc, Initial residual = 0, Final residual = 0, No Iterations 0
diagonal:  Solving for rhoAr, Initial residual = 0, Final residual = 0, No Iterations 0
diagonal:  Solving for rhot1, Initial residual = 0, Final residual = 0, No Iterations 0
diagonal:  Solving for rhot2, Initial residual = 0, Final residual = 0, No Iterations 0
diagonal:  Solving for rhog, Initial residual = 0, Final residual = 0, No Iterations 0
GAMG:  Solving for T, Initial residual = 0.066861, Final residual = 2.74211e-12, No Iterations 1
ExecutionTime = 0.03 s  ClockTime = 0 s

Time = 0.09

diagonal:  Solving for rhos, Initial residual = 0, Final residual = 0, No Iterations 0
diagonal:  Solving for rhois, Initial residual = 0, Final residual = 0, No Iterations 0
diagonal:  Solving for rhoc, Initial residual = 0, Final residual = 0, No Iterations 0
diagonal:  Solving for rhoAr, Initial residual = 0, Final residual = 0, No Iterations 0
diagonal:  Solving for rhot1, Initial residual = 0, Final residual = 0, No Iterations 0
diagonal:  Solving for rhot2, Initial residual = 0, Final residual = 0, No Iterations 0
diagonal:  Solving for rhog, Initial residual = 0, Final residual = 0, No Iterations 0
GAMG:  Solving for T, Initial residual = 0.0586801, Final residual = 2.44916e-12, No Iterations 1
ExecutionTime = 0.03 s  ClockTime = 0 s

Time = 0.1

diagonal:  Solving for rhos, Initial residual = 0, Final residual = 0, No Iterations 0
diagonal:  Solving for rhois, Initial residual = 0, Final residual = 0, No Iterations 0
diagonal:  Solving for rhoc, Initial residual = 0, Final residual = 0, No Iterations 0
diagonal:  Solving for rhoAr, Initial residual = 0, Final residual = 0, No Iterations 0
diagonal:  Solving for rhot1, Initial residual = 0, Final residual = 0, No Iterations 0
diagonal:  Solving for rhot2, Initial residual = 0, Final residual = 0, No Iterations 0
diagonal:  Solving for rhog, Initial residual = 0, Final residual = 0, No Iterations 0
GAMG:  Solving for T, Initial residual = 0.052233, Final residual = 2.03975e-12, No Iterations 1
ExecutionTime = 0.03 s  ClockTime = 0 s

Time = 0.11

diagonal:  Solving for rhos, Initial residual = 0, Final residual = 0, No Iterations 0
diagonal:  Solving for rhois, Initial residual = 0, Final residual = 0, No Iterations 0
diagonal:  Solving for rhoc, Initial residual = 0, Final residual = 0, No Iterations 0
diagonal:  Solving for rhoAr, Initial residual = 0, Final residual = 0, No Iterations 0
diagonal:  Solving for rhot1, Initial residual = 0, Final residual = 0, No Iterations 0
diagonal:  Solving for rhot2, Initial residual = 0, Final residual = 0, No Iterations 0
diagonal:  Solving for rhog, Initial residual = 0, Final residual = 0, No Iterations 0
GAMG:  Solving for T, Initial residual = 0.047025, Final residual = 1.76518e-12, No Iterations 1
ExecutionTime = 0.03 s  ClockTime = 0 s

Time = 0.12

diagonal:  Solving for rhos, Initial residual = 0, Final residual = 0, No Iterations 0
diagonal:  Solving for rhois, Initial residual = 0, Final residual = 0, No Iterations 0
diagonal:  Solving for rhoc, Initial residual = 0, Final residual = 0, No Iterations 0
diagonal:  Solving for rhoAr, Initial residual = 0, Final residual = 0, No Iterations 0
diagonal:  Solving for rhot1, Initial residual = 0, Final residual = 0, No Iterations 0
diagonal:  Solving for rhot2, Initial residual = 0, Final residual = 0, No Iterations 0
diagonal:  Solving for rhog, Initial residual = 0, Final residual = 0, No Iterations 0
GAMG:  Solving for T, Initial residual = 0.042733, Final residual = 1.5353e-12, No Iterations 1
ExecutionTime = 0.04 s  ClockTime = 0 s

Time = 0.13

diagonal:  Solving for rhos, Initial residual = 0, Final residual = 0, No Iterations 0
diagonal:  Solving for rhois, Initial residual = 0, Final residual = 0, No Iterations 0
diagonal:  Solving for rhoc, Initial residual = 0, Final residual = 0, No Iterations 0
diagonal:  Solving for rhoAr, Initial residual = 0, Final residual = 0, No Iterations 0
diagonal:  Solving for rhot1, Initial residual = 0, Final residual = 0, No Iterations 0
diagonal:  Solving for rhot2, Initial residual = 0, Final residual = 0, No Iterations 0
diagonal:  Solving for rhog, Initial residual = 0, Final residual = 0, No Iterations 0
GAMG:  Solving for T, Initial residual = 0.0391372, Final residual = 1.37249e-12, No Iterations 1
ExecutionTime = 0.04 s  ClockTime = 0 s

Time = 0.14

diagonal:  Solving for rhos, Initial residual = 0, Final residual = 0, No Iterations 0
diagonal:  Solving for rhois, Initial residual = 0, Final residual = 0, No Iterations 0
diagonal:  Solving for rhoc, Initial residual = 0, Final residual = 0, No Iterations 0
diagonal:  Solving for rhoAr, Initial residual = 0, Final residual = 0, No Iterations 0
diagonal:  Solving for rhot1, Initial residual = 0, Final residual = 0, No Iterations 0
diagonal:  Solving for rhot2, Initial residual = 0, Final residual = 0, No Iterations 0
diagonal:  Solving for rhog, Initial residual = 0, Final residual = 0, No Iterations 0
GAMG:  Solving for T, Initial residual = 0.0360827, Final residual = 1.22047e-12, No Iterations 1
ExecutionTime = 0.04 s  ClockTime = 0 s

Time = 0.15

diagonal:  Solving for rhos, Initial residual = 0, Final residual = 0, No Iterations 0
diagonal:  Solving for rhois, Initial residual = 0, Final residual = 0, No Iterations 0
diagonal:  Solving for rhoc, Initial residual = 0, Final residual = 0, No Iterations 0
diagonal:  Solving for rhoAr, Initial residual = 0, Final residual = 0, No Iterations 0
diagonal:  Solving for rhot1, Initial residual = 0, Final residual = 0, No Iterations 0
diagonal:  Solving for rhot2, Initial residual = 0, Final residual = 0, No Iterations 0
diagonal:  Solving for rhog, Initial residual = 0, Final residual = 0, No Iterations 0
GAMG:  Solving for T, Initial residual = 0.0334574, Final residual = 1.11372e-12, No Iterations 1
ExecutionTime = 0.04 s  ClockTime = 0 s

Time = 0.16

diagonal:  Solving for rhos, Initial residual = 0, Final residual = 0, No Iterations 0
diagonal:  Solving for rhois, Initial residual = 0, Final residual = 0, No Iterations 0
diagonal:  Solving for rhoc, Initial residual = 0, Final residual = 0, No Iterations 0
diagonal:  Solving for rhoAr, Initial residual = 0, Final residual = 0, No Iterations 0
diagonal:  Solving for rhot1, Initial residual = 0, Final residual = 0, No Iterations 0
diagonal:  Solving for rhot2, Initial residual = 0, Final residual = 0, No Iterations 0
diagonal:  Solving for rhog, Initial residual = 0, Final residual = 0, No Iterations 0
GAMG:  Solving for T, Initial residual = 0.0311779, Final residual = 9.83344e-13, No Iterations 1
ExecutionTime = 0.04 s  ClockTime = 0 s

Time = 0.17

diagonal:  Solving for rhos, Initial residual = 0, Final residual = 0, No Iterations 0
diagonal:  Solving for rhois, Initial residual = 0, Final residual = 0, No Iterations 0
diagonal:  Solving for rhoc, Initial residual = 0, Final residual = 0, No Iterations 0
diagonal:  Solving for rhoAr, Initial residual = 0, Final residual = 0, No Iterations 0
diagonal:  Solving for rhot1, Initial residual = 0, Final residual = 0, No Iterations 0
diagonal:  Solving for rhot2, Initial residual = 0, Final residual = 0, No Iterations 0
diagonal:  Solving for rhog, Initial residual = 0, Final residual = 0, No Iterations 0
GAMG:  Solving for T, Initial residual = 0.0291811, Final residual = 9.02926e-13, No Iterations 1
ExecutionTime = 0.05 s  ClockTime = 0 s

Time = 0.18

diagonal:  Solving for rhos, Initial residual = 0, Final residual = 0, No Iterations 0
diagonal:  Solving for rhois, Initial residual = 0, Final residual = 0, No Iterations 0
diagonal:  Solving for rhoc, Initial residual = 0, Final residual = 0, No Iterations 0
diagonal:  Solving for rhoAr, Initial residual = 0, Final residual = 0, No Iterations 0
diagonal:  Solving for rhot1, Initial residual = 0, Final residual = 0, No Iterations 0
diagonal:  Solving for rhot2, Initial residual = 0, Final residual = 0, No Iterations 0
diagonal:  Solving for rhog, Initial residual = 0, Final residual = 0, No Iterations 0
GAMG:  Solving for T, Initial residual = 0.0274185, Final residual = 8.40117e-13, No Iterations 1
ExecutionTime = 0.05 s  ClockTime = 0 s

Time = 0.19

diagonal:  Solving for rhos, Initial residual = 0, Final residual = 0, No Iterations 0
diagonal:  Solving for rhois, Initial residual = 0, Final residual = 0, No Iterations 0
diagonal:  Solving for rhoc, Initial residual = 0, Final residual = 0, No Iterations 0
diagonal:  Solving for rhoAr, Initial residual = 0, Final residual = 0, No Iterations 0
diagonal:  Solving for rhot1, Initial residual = 0, Final residual = 0, No Iterations 0
diagonal:  Solving for rhot2, Initial residual = 0, Final residual = 0, No Iterations 0
diagonal:  Solving for rhog, Initial residual = 0, Final residual = 0, No Iterations 0
GAMG:  Solving for T, Initial residual = 0.0258517, Final residual = 7.73363e-13, No Iterations 1
ExecutionTime = 0.05 s  ClockTime = 0 s

Time = 0.2

diagonal:  Solving for rhos, Initial residual = 0, Final residual = 0, No Iterations 0
diagonal:  Solving for rhois, Initial residual = 0, Final residual = 0, No Iterations 0
diagonal:  Solving for rhoc, Initial residual = 0, Final residual = 0, No Iterations 0
diagonal:  Solving for rhoAr, Initial residual = 0, Final residual = 0, No Iterations 0
diagonal:  Solving for rhot1, Initial residual = 0, Final residual = 0, No Iterations 0
diagonal:  Solving for rhot2, Initial residual = 0, Final residual = 0, No Iterations 0
diagonal:  Solving for rhog, Initial residual = 0, Final residual = 0, No Iterations 0
GAMG:  Solving for T, Initial residual = 0.0244504, Final residual = 7.14782e-13, No Iterations 1
ExecutionTime = 0.05 s  ClockTime = 0 s

Time = 0.21

diagonal:  Solving for rhos, Initial residual = 0, Final residual = 0, No Iterations 0
diagonal:  Solving for rhois, Initial residual = 0, Final residual = 0, No Iterations 0
diagonal:  Solving for rhoc, Initial residual = 0, Final residual = 0, No Iterations 0
diagonal:  Solving for rhoAr, Initial residual = 0, Final residual = 0, No Iterations 0
diagonal:  Solving for rhot1, Initial residual = 0, Final residual = 0, No Iterations 0
diagonal:  Solving for rhot2, Initial residual = 0, Final residual = 0, No Iterations 0
diagonal:  Solving for rhog, Initial residual = 0, Final residual = 0, No Iterations 0
GAMG:  Solving for T, Initial residual = 0.0231904, Final residual = 6.76884e-13, No Iterations 1
ExecutionTime = 0.05 s  ClockTime = 0 s

Time = 0.22

diagonal:  Solving for rhos, Initial residual = 0, Final residual = 0, No Iterations 0
diagonal:  Solving for rhois, Initial residual = 0, Final residual = 0, No Iterations 0
diagonal:  Solving for rhoc, Initial residual = 0, Final residual = 0, No Iterations 0
diagonal:  Solving for rhoAr, Initial residual = 0, Final residual = 0, No Iterations 0
diagonal:  Solving for rhot1, Initial residual = 0, Final residual = 0, No Iterations 0
diagonal:  Solving for rhot2, Initial residual = 0, Final residual = 0, No Iterations 0
diagonal:  Solving for rhog, Initial residual = 0, Final residual = 0, No Iterations 0
GAMG:  Solving for T, Initial residual = 0.0220516, Final residual = 6.15994e-13, No Iterations 1
ExecutionTime = 0.05 s  ClockTime = 0 s

Time = 0.23

diagonal:  Solving for rhos, Initial residual = 0, Final residual = 0, No Iterations 0
diagonal:  Solving for rhois, Initial residual = 0, Final residual = 0, No Iterations 0
diagonal:  Solving for rhoc, Initial residual = 0, Final residual = 0, No Iterations 0
diagonal:  Solving for rhoAr, Initial residual = 0, Final residual = 0, No Iterations 0
diagonal:  Solving for rhot1, Initial residual = 0, Final residual = 0, No Iterations 0
diagonal:  Solving for rhot2, Initial residual = 0, Final residual = 0, No Iterations 0
diagonal:  Solving for rhog, Initial residual = 0, Final residual = 0, No Iterations 0
GAMG:  Solving for T, Initial residual = 0.0210177, Final residual = 5.79109e-13, No Iterations 1
ExecutionTime = 0.06 s  ClockTime = 0 s

Time = 0.24

diagonal:  Solving for rhos, Initial residual = 0, Final residual = 0, No Iterations 0
diagonal:  Solving for rhois, Initial residual = 0, Final residual = 0, No Iterations 0
diagonal:  Solving for rhoc, Initial residual = 0, Final residual = 0, No Iterations 0
diagonal:  Solving for rhoAr, Initial residual = 0, Final residual = 0, No Iterations 0
diagonal:  Solving for rhot1, Initial residual = 0, Final residual = 0, No Iterations 0
diagonal:  Solving for rhot2, Initial residual = 0, Final residual = 0, No Iterations 0
diagonal:  Solving for rhog, Initial residual = 0, Final residual = 0, No Iterations 0
GAMG:  Solving for T, Initial residual = 0.0200752, Final residual = 5.46328e-13, No Iterations 1
ExecutionTime = 0.06 s  ClockTime = 0 s

Time = 0.25

diagonal:  Solving for rhos, Initial residual = 0, Final residual = 0, No Iterations 0
diagonal:  Solving for rhois, Initial residual = 0, Final residual = 0, No Iterations 0
diagonal:  Solving for rhoc, Initial residual = 0, Final residual = 0, No Iterations 0
diagonal:  Solving for rhoAr, Initial residual = 0, Final residual = 0, No Iterations 0
diagonal:  Solving for rhot1, Initial residual = 0, Final residual = 0, No Iterations 0
diagonal:  Solving for rhot2, Initial residual = 0, Final residual = 0, No Iterations 0
diagonal:  Solving for rhog, Initial residual = 0, Final residual = 0, No Iterations 0
GAMG:  Solving for T, Initial residual = 0.0192128, Final residual = 5.05463e-13, No Iterations 1
ExecutionTime = 0.06 s  ClockTime = 0 s

Time = 0.26

diagonal:  Solving for rhos, Initial residual = 0, Final residual = 0, No Iterations 0
diagonal:  Solving for rhois, Initial residual = 0, Final residual = 0, No Iterations 0
diagonal:  Solving for rhoc, Initial residual = 0, Final residual = 0, No Iterations 0
diagonal:  Solving for rhoAr, Initial residual = 0, Final residual = 0, No Iterations 0
diagonal:  Solving for rhot1, Initial residual = 0, Final residual = 0, No Iterations 0
diagonal:  Solving for rhot2, Initial residual = 0, Final residual = 0, No Iterations 0
diagonal:  Solving for rhog, Initial residual = 0, Final residual = 0, No Iterations 0
GAMG:  Solving for T, Initial residual = 0.0184131, Final residual = 4.8512e-13, No Iterations 1
ExecutionTime = 0.06 s  ClockTime = 0 s

Time = 0.27

diagonal:  Solving for rhos, Initial residual = 0, Final residual = 0, No Iterations 0
diagonal:  Solving for rhois, Initial residual = 0, Final residual = 0, No Iterations 0
diagonal:  Solving for rhoc, Initial residual = 0, Final residual = 0, No Iterations 0
diagonal:  Solving for rhoAr, Initial residual = 0, Final residual = 0, No Iterations 0
diagonal:  Solving for rhot1, Initial residual = 0, Final residual = 0, No Iterations 0
diagonal:  Solving for rhot2, Initial residual = 0, Final residual = 0, No Iterations 0
diagonal:  Solving for rhog, Initial residual = 0, Final residual = 0, No Iterations 0
GAMG:  Solving for T, Initial residual = 0.0176734, Final residual = 4.59212e-13, No Iterations 1
ExecutionTime = 0.06 s  ClockTime = 0 s

Time = 0.28

diagonal:  Solving for rhos, Initial residual = 0, Final residual = 0, No Iterations 0
diagonal:  Solving for rhois, Initial residual = 0, Final residual = 0, No Iterations 0
diagonal:  Solving for rhoc, Initial residual = 0, Final residual = 0, No Iterations 0
diagonal:  Solving for rhoAr, Initial residual = 0, Final residual = 0, No Iterations 0
diagonal:  Solving for rhot1, Initial residual = 0, Final residual = 0, No Iterations 0
diagonal:  Solving for rhot2, Initial residual = 0, Final residual = 0, No Iterations 0
diagonal:  Solving for rhog, Initial residual = 0, Final residual = 0, No Iterations 0
GAMG:  Solving for T, Initial residual = 0.0169839, Final residual = 4.33e-13, No Iterations 1
ExecutionTime = 0.07 s  ClockTime = 0 s

Time = 0.29

diagonal:  Solving for rhos, Initial residual = 0, Final residual = 0, No Iterations 0
diagonal:  Solving for rhois, Initial residual = 0, Final residual = 0, No Iterations 0
diagonal:  Solving for rhoc, Initial residual = 0, Final residual = 0, No Iterations 0
diagonal:  Solving for rhoAr, Initial residual = 0, Final residual = 0, No Iterations 0
diagonal:  Solving for rhot1, Initial residual = 0, Final residual = 0, No Iterations 0
diagonal:  Solving for rhot2, Initial residual = 0, Final residual = 0, No Iterations 0
diagonal:  Solving for rhog, Initial residual = 0, Final residual = 0, No Iterations 0
GAMG:  Solving for T, Initial residual = 0.0163405, Final residual = 4.0917e-13, No Iterations 1
ExecutionTime = 0.07 s  ClockTime = 0 s

Time = 0.3

diagonal:  Solving for rhos, Initial residual = 0, Final residual = 0, No Iterations 0
diagonal:  Solving for rhois, Initial residual = 0, Final residual = 0, No Iterations 0
diagonal:  Solving for rhoc, Initial residual = 0, Final residual = 0, No Iterations 0
diagonal:  Solving for rhoAr, Initial residual = 0, Final residual = 0, No Iterations 0
diagonal:  Solving for rhot1, Initial residual = 0, Final residual = 0, No Iterations 0
diagonal:  Solving for rhot2, Initial residual = 0, Final residual = 0, No Iterations 0
diagonal:  Solving for rhog, Initial residual = 0, Final residual = 0, No Iterations 0
GAMG:  Solving for T, Initial residual = 0.0157424, Final residual = 3.85637e-13, No Iterations 1
ExecutionTime = 0.07 s  ClockTime = 0 s

Time = 0.31

diagonal:  Solving for rhos, Initial residual = 0, Final residual = 0, No Iterations 0
diagonal:  Solving for rhois, Initial residual = 0, Final residual = 0, No Iterations 0
diagonal:  Solving for rhoc, Initial residual = 0, Final residual = 0, No Iterations 0
diagonal:  Solving for rhoAr, Initial residual = 0, Final residual = 0, No Iterations 0
diagonal:  Solving for rhot1, Initial residual = 0, Final residual = 0, No Iterations 0
diagonal:  Solving for rhot2, Initial residual = 0, Final residual = 0, No Iterations 0
diagonal:  Solving for rhog, Initial residual = 0, Final residual = 0, No Iterations 0
GAMG:  Solving for T, Initial residual = 0.0151852, Final residual = 3.67783e-13, No Iterations 1
ExecutionTime = 0.07 s  ClockTime = 0 s

Time = 0.32

diagonal:  Solving for rhos, Initial residual = 0, Final residual = 0, No Iterations 0
diagonal:  Solving for rhois, Initial residual = 0, Final residual = 0, No Iterations 0
diagonal:  Solving for rhoc, Initial residual = 0, Final residual = 0, No Iterations 0
diagonal:  Solving for rhoAr, Initial residual = 0, Final residual = 0, No Iterations 0
diagonal:  Solving for rhot1, Initial residual = 0, Final residual = 0, No Iterations 0
diagonal:  Solving for rhot2, Initial residual = 0, Final residual = 0, No Iterations 0
diagonal:  Solving for rhog, Initial residual = 0, Final residual = 0, No Iterations 0
GAMG:  Solving for T, Initial residual = 0.0146652, Final residual = 3.55639e-13, No Iterations 1
ExecutionTime = 0.07 s  ClockTime = 0 s

Time = 0.33

diagonal:  Solving for rhos, Initial residual = 0, Final residual = 0, No Iterations 0
diagonal:  Solving for rhois, Initial residual = 0, Final residual = 0, No Iterations 0
diagonal:  Solving for rhoc, Initial residual = 0, Final residual = 0, No Iterations 0
diagonal:  Solving for rhoAr, Initial residual = 0, Final residual = 0, No Iterations 0
diagonal:  Solving for rhot1, Initial residual = 0, Final residual = 0, No Iterations 0
diagonal:  Solving for rhot2, Initial residual = 0, Final residual = 0, No Iterations 0
diagonal:  Solving for rhog, Initial residual = 0, Final residual = 0, No Iterations 0
GAMG:  Solving for T, Initial residual = 0.0141787, Final residual = 3.37992e-13, No Iterations 1
ExecutionTime = 0.08 s  ClockTime = 0 s

Time = 0.34

diagonal:  Solving for rhos, Initial residual = 0, Final residual = 0, No Iterations 0
diagonal:  Solving for rhois, Initial residual = 0, Final residual = 0, No Iterations 0
diagonal:  Solving for rhoc, Initial residual = 0, Final residual = 0, No Iterations 0
diagonal:  Solving for rhoAr, Initial residual = 0, Final residual = 0, No Iterations 0
diagonal:  Solving for rhot1, Initial residual = 0, Final residual = 0, No Iterations 0
diagonal:  Solving for rhot2, Initial residual = 0, Final residual = 0, No Iterations 0
diagonal:  Solving for rhog, Initial residual = 0, Final residual = 0, No Iterations 0
GAMG:  Solving for T, Initial residual = 0.0137228, Final residual = 3.1303e-13, No Iterations 1
ExecutionTime = 0.08 s  ClockTime = 0 s

Time = 0.35

diagonal:  Solving for rhos, Initial residual = 0, Final residual = 0, No Iterations 0
diagonal:  Solving for rhois, Initial residual = 0, Final residual = 0, No Iterations 0
diagonal:  Solving for rhoc, Initial residual = 0, Final residual = 0, No Iterations 0
diagonal:  Solving for rhoAr, Initial residual = 0, Final residual = 0, No Iterations 0
diagonal:  Solving for rhot1, Initial residual = 0, Final residual = 0, No Iterations 0
diagonal:  Solving for rhot2, Initial residual = 0, Final residual = 0, No Iterations 0
diagonal:  Solving for rhog, Initial residual = 0, Final residual = 0, No Iterations 0
GAMG:  Solving for T, Initial residual = 0.0132947, Final residual = 2.99596e-13, No Iterations 1
ExecutionTime = 0.08 s  ClockTime = 0 s

Time = 0.36

diagonal:  Solving for rhos, Initial residual = 0, Final residual = 0, No Iterations 0
diagonal:  Solving for rhois, Initial residual = 0, Final residual = 0, No Iterations 0
diagonal:  Solving for rhoc, Initial residual = 0, Final residual = 0, No Iterations 0
diagonal:  Solving for rhoAr, Initial residual = 0, Final residual = 0, No Iterations 0
diagonal:  Solving for rhot1, Initial residual = 0, Final residual = 0, No Iterations 0
diagonal:  Solving for rhot2, Initial residual = 0, Final residual = 0, No Iterations 0
diagonal:  Solving for rhog, Initial residual = 0, Final residual = 0, No Iterations 0
GAMG:  Solving for T, Initial residual = 0.0128921, Final residual = 2.84407e-13, No Iterations 1
ExecutionTime = 0.08 s  ClockTime = 0 s

Time = 0.37

diagonal:  Solving for rhos, Initial residual = 0, Final residual = 0, No Iterations 0
diagonal:  Solving for rhois, Initial residual = 0, Final residual = 0, No Iterations 0
diagonal:  Solving for rhoc, Initial residual = 0, Final residual = 0, No Iterations 0
diagonal:  Solving for rhoAr, Initial residual = 0, Final residual = 0, No Iterations 0
diagonal:  Solving for rhot1, Initial residual = 0, Final residual = 0, No Iterations 0
diagonal:  Solving for rhot2, Initial residual = 0, Final residual = 0, No Iterations 0
diagonal:  Solving for rhog, Initial residual = 0, Final residual = 0, No Iterations 0
GAMG:  Solving for T, Initial residual = 0.0125127, Final residual = 2.6674e-13, No Iterations 1
ExecutionTime = 0.08 s  ClockTime = 0 s

Time = 0.38

diagonal:  Solving for rhos, Initial residual = 0, Final residual = 0, No Iterations 0
diagonal:  Solving for rhois, Initial residual = 0, Final residual = 0, No Iterations 0
diagonal:  Solving for rhoc, Initial residual = 0, Final residual = 0, No Iterations 0
diagonal:  Solving for rhoAr, Initial residual = 0, Final residual = 0, No Iterations 0
diagonal:  Solving for rhot1, Initial residual = 0, Final residual = 0, No Iterations 0
diagonal:  Solving for rhot2, Initial residual = 0, Final residual = 0, No Iterations 0
diagonal:  Solving for rhog, Initial residual = 0, Final residual = 0, No Iterations 0
GAMG:  Solving for T, Initial residual = 0.0121547, Final residual = 2.62742e-13, No Iterations 1
ExecutionTime = 0.08 s  ClockTime = 0 s

Time = 0.39

diagonal:  Solving for rhos, Initial residual = 0, Final residual = 0, No Iterations 0
diagonal:  Solving for rhois, Initial residual = 0, Final residual = 0, No Iterations 0
diagonal:  Solving for rhoc, Initial residual = 0, Final residual = 0, No Iterations 0
diagonal:  Solving for rhoAr, Initial residual = 0, Final residual = 0, No Iterations 0
diagonal:  Solving for rhot1, Initial residual = 0, Final residual = 0, No Iterations 0
diagonal:  Solving for rhot2, Initial residual = 0, Final residual = 0, No Iterations 0
diagonal:  Solving for rhog, Initial residual = 0, Final residual = 0, No Iterations 0
GAMG:  Solving for T, Initial residual = 0.0118164, Final residual = 2.48335e-13, No Iterations 1
ExecutionTime = 0.09 s  ClockTime = 0 s

Time = 0.4

diagonal:  Solving for rhos, Initial residual = 0, Final residual = 0, No Iterations 0
diagonal:  Solving for rhois, Initial residual = 0, Final residual = 0, No Iterations 0
diagonal:  Solving for rhoc, Initial residual = 0, Final residual = 0, No Iterations 0
diagonal:  Solving for rhoAr, Initial residual = 0, Final residual = 0, No Iterations 0
diagonal:  Solving for rhot1, Initial residual = 0, Final residual = 0, No Iterations 0
diagonal:  Solving for rhot2, Initial residual = 0, Final residual = 0, No Iterations 0
diagonal:  Solving for rhog, Initial residual = 0, Final residual = 0, No Iterations 0
GAMG:  Solving for T, Initial residual = 0.0114962, Final residual = 2.38734e-13, No Iterations 1
ExecutionTime = 0.09 s  ClockTime = 0 s

Time = 0.41

diagonal:  Solving for rhos, Initial residual = 0, Final residual = 0, No Iterations 0
diagonal:  Solving for rhois, Initial residual = 0, Final residual = 0, No Iterations 0
diagonal:  Solving for rhoc, Initial residual = 0, Final residual = 0, No Iterations 0
diagonal:  Solving for rhoAr, Initial residual = 0, Final residual = 0, No Iterations 0
diagonal:  Solving for rhot1, Initial residual = 0, Final residual = 0, No Iterations 0
diagonal:  Solving for rhot2, Initial residual = 0, Final residual = 0, No Iterations 0
diagonal:  Solving for rhog, Initial residual = 0, Final residual = 0, No Iterations 0
GAMG:  Solving for T, Initial residual = 0.0111928, Final residual = 2.36731e-13, No Iterations 1
ExecutionTime = 0.09 s  ClockTime = 0 s

Time = 0.42

diagonal:  Solving for rhos, Initial residual = 0, Final residual = 0, No Iterations 0
diagonal:  Solving for rhois, Initial residual = 0, Final residual = 0, No Iterations 0
diagonal:  Solving for rhoc, Initial residual = 0, Final residual = 0, No Iterations 0
diagonal:  Solving for rhoAr, Initial residual = 0, Final residual = 0, No Iterations 0
diagonal:  Solving for rhot1, Initial residual = 0, Final residual = 0, No Iterations 0
diagonal:  Solving for rhot2, Initial residual = 0, Final residual = 0, No Iterations 0
diagonal:  Solving for rhog, Initial residual = 0, Final residual = 0, No Iterations 0
GAMG:  Solving for T, Initial residual = 0.0109049, Final residual = 2.21114e-13, No Iterations 1
ExecutionTime = 0.09 s  ClockTime = 0 s

Time = 0.43

diagonal:  Solving for rhos, Initial residual = 0, Final residual = 0, No Iterations 0
diagonal:  Solving for rhois, Initial residual = 0, Final residual = 0, No Iterations 0
diagonal:  Solving for rhoc, Initial residual = 0, Final residual = 0, No Iterations 0
diagonal:  Solving for rhoAr, Initial residual = 0, Final residual = 0, No Iterations 0
diagonal:  Solving for rhot1, Initial residual = 0, Final residual = 0, No Iterations 0
diagonal:  Solving for rhot2, Initial residual = 0, Final residual = 0, No Iterations 0
diagonal:  Solving for rhog, Initial residual = 0, Final residual = 0, No Iterations 0
GAMG:  Solving for T, Initial residual = 0.0106314, Final residual = 2.19189e-13, No Iterations 1
ExecutionTime = 0.09 s  ClockTime = 0 s

Time = 0.44

diagonal:  Solving for rhos, Initial residual = 0, Final residual = 0, No Iterations 0
diagonal:  Solving for rhois, Initial residual = 0, Final residual = 0, No Iterations 0
diagonal:  Solving for rhoc, Initial residual = 0, Final residual = 0, No Iterations 0
diagonal:  Solving for rhoAr, Initial residual = 0, Final residual = 0, No Iterations 0
diagonal:  Solving for rhot1, Initial residual = 0, Final residual = 0, No Iterations 0
diagonal:  Solving for rhot2, Initial residual = 0, Final residual = 0, No Iterations 0
diagonal:  Solving for rhog, Initial residual = 0, Final residual = 0, No Iterations 0
GAMG:  Solving for T, Initial residual = 0.0103712, Final residual = 2.05401e-13, No Iterations 1
ExecutionTime = 0.1 s  ClockTime = 0 s

Time = 0.45

diagonal:  Solving for rhos, Initial residual = 0, Final residual = 0, No Iterations 0
diagonal:  Solving for rhois, Initial residual = 0, Final residual = 0, No Iterations 0
diagonal:  Solving for rhoc, Initial residual = 0, Final residual = 0, No Iterations 0
diagonal:  Solving for rhoAr, Initial residual = 0, Final residual = 0, No Iterations 0
diagonal:  Solving for rhot1, Initial residual = 0, Final residual = 0, No Iterations 0
diagonal:  Solving for rhot2, Initial residual = 0, Final residual = 0, No Iterations 0
diagonal:  Solving for rhog, Initial residual = 0, Final residual = 0, No Iterations 0
GAMG:  Solving for T, Initial residual = 0.0101235, Final residual = 2.03276e-13, No Iterations 1
ExecutionTime = 0.1 s  ClockTime = 0 s

Time = 0.46

diagonal:  Solving for rhos, Initial residual = 0, Final residual = 0, No Iterations 0
diagonal:  Solving for rhois, Initial residual = 0, Final residual = 0, No Iterations 0
diagonal:  Solving for rhoc, Initial residual = 0, Final residual = 0, No Iterations 0
diagonal:  Solving for rhoAr, Initial residual = 0, Final residual = 0, No Iterations 0
diagonal:  Solving for rhot1, Initial residual = 0, Final residual = 0, No Iterations 0
diagonal:  Solving for rhot2, Initial residual = 0, Final residual = 0, No Iterations 0
diagonal:  Solving for rhog, Initial residual = 0, Final residual = 0, No Iterations 0
GAMG:  Solving for T, Initial residual = 0.00988733, Final residual = 1.93605e-13, No Iterations 1
ExecutionTime = 0.1 s  ClockTime = 0 s

Time = 0.47

diagonal:  Solving for rhos, Initial residual = 0, Final residual = 0, No Iterations 0
diagonal:  Solving for rhois, Initial residual = 0, Final residual = 0, No Iterations 0
diagonal:  Solving for rhoc, Initial residual = 0, Final residual = 0, No Iterations 0
diagonal:  Solving for rhoAr, Initial residual = 0, Final residual = 0, No Iterations 0
diagonal:  Solving for rhot1, Initial residual = 0, Final residual = 0, No Iterations 0
diagonal:  Solving for rhot2, Initial residual = 0, Final residual = 0, No Iterations 0
diagonal:  Solving for rhog, Initial residual = 0, Final residual = 0, No Iterations 0
GAMG:  Solving for T, Initial residual = 0.00966199, Final residual = 1.84967e-13, No Iterations 1
ExecutionTime = 0.1 s  ClockTime = 0 s

Time = 0.48

diagonal:  Solving for rhos, Initial residual = 0, Final residual = 0, No Iterations 0
diagonal:  Solving for rhois, Initial residual = 0, Final residual = 0, No Iterations 0
diagonal:  Solving for rhoc, Initial residual = 0, Final residual = 0, No Iterations 0
diagonal:  Solving for rhoAr, Initial residual = 0, Final residual = 0, No Iterations 0
diagonal:  Solving for rhot1, Initial residual = 0, Final residual = 0, No Iterations 0
diagonal:  Solving for rhot2, Initial residual = 0, Final residual = 0, No Iterations 0
diagonal:  Solving for rhog, Initial residual = 0, Final residual = 0, No Iterations 0
GAMG:  Solving for T, Initial residual = 0.00944675, Final residual = 1.75763e-13, No Iterations 1
ExecutionTime = 0.1 s  ClockTime = 0 s

Time = 0.49

diagonal:  Solving for rhos, Initial residual = 0, Final residual = 0, No Iterations 0
diagonal:  Solving for rhois, Initial residual = 0, Final residual = 0, No Iterations 0
diagonal:  Solving for rhoc, Initial residual = 0, Final residual = 0, No Iterations 0
diagonal:  Solving for rhoAr, Initial residual = 0, Final residual = 0, No Iterations 0
diagonal:  Solving for rhot1, Initial residual = 0, Final residual = 0, No Iterations 0
diagonal:  Solving for rhot2, Initial residual = 0, Final residual = 0, No Iterations 0
diagonal:  Solving for rhog, Initial residual = 0, Final residual = 0, No Iterations 0
GAMG:  Solving for T, Initial residual = 0.00924098, Final residual = 1.76474e-13, No Iterations 1
ExecutionTime = 0.1 s  ClockTime = 0 s

Time = 0.5

diagonal:  Solving for rhos, Initial residual = 0, Final residual = 0, No Iterations 0
diagonal:  Solving for rhois, Initial residual = 0, Final residual = 0, No Iterations 0
diagonal:  Solving for rhoc, Initial residual = 0, Final residual = 0, No Iterations 0
diagonal:  Solving for rhoAr, Initial residual = 0, Final residual = 0, No Iterations 0
diagonal:  Solving for rhot1, Initial residual = 0, Final residual = 0, No Iterations 0
diagonal:  Solving for rhot2, Initial residual = 0, Final residual = 0, No Iterations 0
diagonal:  Solving for rhog, Initial residual = 0, Final residual = 0, No Iterations 0
GAMG:  Solving for T, Initial residual = 0.00904407, Final residual = 1.70228e-13, No Iterations 1
ExecutionTime = 0.11 s  ClockTime = 0 s

Time = 0.51

diagonal:  Solving for rhos, Initial residual = 0, Final residual = 0, No Iterations 0
diagonal:  Solving for rhois, Initial residual = 0, Final residual = 0, No Iterations 0
diagonal:  Solving for rhoc, Initial residual = 0, Final residual = 0, No Iterations 0
diagonal:  Solving for rhoAr, Initial residual = 0, Final residual = 0, No Iterations 0
diagonal:  Solving for rhot1, Initial residual = 0, Final residual = 0, No Iterations 0
diagonal:  Solving for rhot2, Initial residual = 0, Final residual = 0, No Iterations 0
diagonal:  Solving for rhog, Initial residual = 0, Final residual = 0, No Iterations 0
GAMG:  Solving for T, Initial residual = 0.0088554, Final residual = 1.61191e-13, No Iterations 1
ExecutionTime = 0.11 s  ClockTime = 0 s

Time = 0.52

diagonal:  Solving for rhos, Initial residual = 0, Final residual = 0, No Iterations 0
diagonal:  Solving for rhois, Initial residual = 0, Final residual = 0, No Iterations 0
diagonal:  Solving for rhoc, Initial residual = 0, Final residual = 0, No Iterations 0
diagonal:  Solving for rhoAr, Initial residual = 0, Final residual = 0, No Iterations 0
diagonal:  Solving for rhot1, Initial residual = 0, Final residual = 0, No Iterations 0
diagonal:  Solving for rhot2, Initial residual = 0, Final residual = 0, No Iterations 0
diagonal:  Solving for rhog, Initial residual = 0, Final residual = 0, No Iterations 0
GAMG:  Solving for T, Initial residual = 0.00867455, Final residual = 1.57584e-13, No Iterations 1
ExecutionTime = 0.11 s  ClockTime = 0 s

Time = 0.53

diagonal:  Solving for rhos, Initial residual = 0, Final residual = 0, No Iterations 0
diagonal:  Solving for rhois, Initial residual = 0, Final residual = 0, No Iterations 0
diagonal:  Solving for rhoc, Initial residual = 0, Final residual = 0, No Iterations 0
diagonal:  Solving for rhoAr, Initial residual = 0, Final residual = 0, No Iterations 0
diagonal:  Solving for rhot1, Initial residual = 0, Final residual = 0, No Iterations 0
diagonal:  Solving for rhot2, Initial residual = 0, Final residual = 0, No Iterations 0
diagonal:  Solving for rhog, Initial residual = 0, Final residual = 0, No Iterations 0
GAMG:  Solving for T, Initial residual = 0.00850105, Final residual = 1.50842e-13, No Iterations 1
ExecutionTime = 0.11 s  ClockTime = 0 s

Time = 0.54

diagonal:  Solving for rhos, Initial residual = 0, Final residual = 0, No Iterations 0
diagonal:  Solving for rhois, Initial residual = 0, Final residual = 0, No Iterations 0
diagonal:  Solving for rhoc, Initial residual = 0, Final residual = 0, No Iterations 0
diagonal:  Solving for rhoAr, Initial residual = 0, Final residual = 0, No Iterations 0
diagonal:  Solving for rhot1, Initial residual = 0, Final residual = 0, No Iterations 0
diagonal:  Solving for rhot2, Initial residual = 0, Final residual = 0, No Iterations 0
diagonal:  Solving for rhog, Initial residual = 0, Final residual = 0, No Iterations 0
GAMG:  Solving for T, Initial residual = 0.00833443, Final residual = 1.50339e-13, No Iterations 1
ExecutionTime = 0.11 s  ClockTime = 0 s

Time = 0.55

diagonal:  Solving for rhos, Initial residual = 0, Final residual = 0, No Iterations 0
diagonal:  Solving for rhois, Initial residual = 0, Final residual = 0, No Iterations 0
diagonal:  Solving for rhoc, Initial residual = 0, Final residual = 0, No Iterations 0
diagonal:  Solving for rhoAr, Initial residual = 0, Final residual = 0, No Iterations 0
diagonal:  Solving for rhot1, Initial residual = 0, Final residual = 0, No Iterations 0
diagonal:  Solving for rhot2, Initial residual = 0, Final residual = 0, No Iterations 0
diagonal:  Solving for rhog, Initial residual = 0, Final residual = 0, No Iterations 0
GAMG:  Solving for T, Initial residual = 0.00817432, Final residual = 1.48441e-13, No Iterations 1
ExecutionTime = 0.12 s  ClockTime = 0 s

Time = 0.56

diagonal:  Solving for rhos, Initial residual = 0, Final residual = 0, No Iterations 0
diagonal:  Solving for rhois, Initial residual = 0, Final residual = 0, No Iterations 0
diagonal:  Solving for rhoc, Initial residual = 0, Final residual = 0, No Iterations 0
diagonal:  Solving for rhoAr, Initial residual = 0, Final residual = 0, No Iterations 0
diagonal:  Solving for rhot1, Initial residual = 0, Final residual = 0, No Iterations 0
diagonal:  Solving for rhot2, Initial residual = 0, Final residual = 0, No Iterations 0
diagonal:  Solving for rhog, Initial residual = 0, Final residual = 0, No Iterations 0
GAMG:  Solving for T, Initial residual = 0.00802038, Final residual = 1.41902e-13, No Iterations 1
ExecutionTime = 0.12 s  ClockTime = 0 s

Time = 0.57

diagonal:  Solving for rhos, Initial residual = 0, Final residual = 0, No Iterations 0
diagonal:  Solving for rhois, Initial residual = 0, Final residual = 0, No Iterations 0
diagonal:  Solving for rhoc, Initial residual = 0, Final residual = 0, No Iterations 0
diagonal:  Solving for rhoAr, Initial residual = 0, Final residual = 0, No Iterations 0
diagonal:  Solving for rhot1, Initial residual = 0, Final residual = 0, No Iterations 0
diagonal:  Solving for rhot2, Initial residual = 0, Final residual = 0, No Iterations 0
diagonal:  Solving for rhog, Initial residual = 0, Final residual = 0, No Iterations 0
GAMG:  Solving for T, Initial residual = 0.00787226, Final residual = 1.35036e-13, No Iterations 1
ExecutionTime = 0.12 s  ClockTime = 0 s

Time = 0.58

diagonal:  Solving for rhos, Initial residual = 0, Final residual = 0, No Iterations 0
diagonal:  Solving for rhois, Initial residual = 0, Final residual = 0, No Iterations 0
diagonal:  Solving for rhoc, Initial residual = 0, Final residual = 0, No Iterations 0
diagonal:  Solving for rhoAr, Initial residual = 0, Final residual = 0, No Iterations 0
diagonal:  Solving for rhot1, Initial residual = 0, Final residual = 0, No Iterations 0
diagonal:  Solving for rhot2, Initial residual = 0, Final residual = 0, No Iterations 0
diagonal:  Solving for rhog, Initial residual = 0, Final residual = 0, No Iterations 0
GAMG:  Solving for T, Initial residual = 0.00772965, Final residual = 1.29945e-13, No Iterations 1
ExecutionTime = 0.12 s  ClockTime = 0 s

Time = 0.59

diagonal:  Solving for rhos, Initial residual = 0, Final residual = 0, No Iterations 0
diagonal:  Solving for rhois, Initial residual = 0, Final residual = 0, No Iterations 0
diagonal:  Solving for rhoc, Initial residual = 0, Final residual = 0, No Iterations 0
diagonal:  Solving for rhoAr, Initial residual = 0, Final residual = 0, No Iterations 0
diagonal:  Solving for rhot1, Initial residual = 0, Final residual = 0, No Iterations 0
diagonal:  Solving for rhot2, Initial residual = 0, Final residual = 0, No Iterations 0
diagonal:  Solving for rhog, Initial residual = 0, Final residual = 0, No Iterations 0
GAMG:  Solving for T, Initial residual = 0.00759225, Final residual = 1.28042e-13, No Iterations 1
ExecutionTime = 0.12 s  ClockTime = 0 s

Time = 0.6

diagonal:  Solving for rhos, Initial residual = 0, Final residual = 0, No Iterations 0
diagonal:  Solving for rhois, Initial residual = 0, Final residual = 0, No Iterations 0
diagonal:  Solving for rhoc, Initial residual = 0, Final residual = 0, No Iterations 0
diagonal:  Solving for rhoAr, Initial residual = 0, Final residual = 0, No Iterations 0
diagonal:  Solving for rhot1, Initial residual = 0, Final residual = 0, No Iterations 0
diagonal:  Solving for rhot2, Initial residual = 0, Final residual = 0, No Iterations 0
diagonal:  Solving for rhog, Initial residual = 0, Final residual = 0, No Iterations 0
GAMG:  Solving for T, Initial residual = 0.0074598, Final residual = 1.24552e-13, No Iterations 1
ExecutionTime = 0.13 s  ClockTime = 0 s

Time = 0.61

diagonal:  Solving for rhos, Initial residual = 0, Final residual = 0, No Iterations 0
diagonal:  Solving for rhois, Initial residual = 0, Final residual = 0, No Iterations 0
diagonal:  Solving for rhoc, Initial residual = 0, Final residual = 0, No Iterations 0
diagonal:  Solving for rhoAr, Initial residual = 0, Final residual = 0, No Iterations 0
diagonal:  Solving for rhot1, Initial residual = 0, Final residual = 0, No Iterations 0
diagonal:  Solving for rhot2, Initial residual = 0, Final residual = 0, No Iterations 0
diagonal:  Solving for rhog, Initial residual = 0, Final residual = 0, No Iterations 0
GAMG:  Solving for T, Initial residual = 0.00733202, Final residual = 1.22982e-13, No Iterations 1
ExecutionTime = 0.13 s  ClockTime = 0 s

Time = 0.62

diagonal:  Solving for rhos, Initial residual = 0, Final residual = 0, No Iterations 0
diagonal:  Solving for rhois, Initial residual = 0, Final residual = 0, No Iterations 0
diagonal:  Solving for rhoc, Initial residual = 0, Final residual = 0, No Iterations 0
diagonal:  Solving for rhoAr, Initial residual = 0, Final residual = 0, No Iterations 0
diagonal:  Solving for rhot1, Initial residual = 0, Final residual = 0, No Iterations 0
diagonal:  Solving for rhot2, Initial residual = 0, Final residual = 0, No Iterations 0
diagonal:  Solving for rhog, Initial residual = 0, Final residual = 0, No Iterations 0
GAMG:  Solving for T, Initial residual = 0.00720869, Final residual = 1.18743e-13, No Iterations 1
ExecutionTime = 0.13 s  ClockTime = 0 s

Time = 0.63

diagonal:  Solving for rhos, Initial residual = 0, Final residual = 0, No Iterations 0
diagonal:  Solving for rhois, Initial residual = 0, Final residual = 0, No Iterations 0
diagonal:  Solving for rhoc, Initial residual = 0, Final residual = 0, No Iterations 0
diagonal:  Solving for rhoAr, Initial residual = 0, Final residual = 0, No Iterations 0
diagonal:  Solving for rhot1, Initial residual = 0, Final residual = 0, No Iterations 0
diagonal:  Solving for rhot2, Initial residual = 0, Final residual = 0, No Iterations 0
diagonal:  Solving for rhog, Initial residual = 0, Final residual = 0, No Iterations 0
GAMG:  Solving for T, Initial residual = 0.00708959, Final residual = 1.13154e-13, No Iterations 1
ExecutionTime = 0.13 s  ClockTime = 0 s

Time = 0.64

diagonal:  Solving for rhos, Initial residual = 0, Final residual = 0, No Iterations 0
diagonal:  Solving for rhois, Initial residual = 0, Final residual = 0, No Iterations 0
diagonal:  Solving for rhoc, Initial residual = 0, Final residual = 0, No Iterations 0
diagonal:  Solving for rhoAr, Initial residual = 0, Final residual = 0, No Iterations 0
diagonal:  Solving for rhot1, Initial residual = 0, Final residual = 0, No Iterations 0
diagonal:  Solving for rhot2, Initial residual = 0, Final residual = 0, No Iterations 0
diagonal:  Solving for rhog, Initial residual = 0, Final residual = 0, No Iterations 0
GAMG:  Solving for T, Initial residual = 0.00697449, Final residual = 1.14777e-13, No Iterations 1
ExecutionTime = 0.13 s  ClockTime = 0 s

Time = 0.65

diagonal:  Solving for rhos, Initial residual = 0, Final residual = 0, No Iterations 0
diagonal:  Solving for rhois, Initial residual = 0, Final residual = 0, No Iterations 0
diagonal:  Solving for rhoc, Initial residual = 0, Final residual = 0, No Iterations 0
diagonal:  Solving for rhoAr, Initial residual = 0, Final residual = 0, No Iterations 0
diagonal:  Solving for rhot1, Initial residual = 0, Final residual = 0, No Iterations 0
diagonal:  Solving for rhot2, Initial residual = 0, Final residual = 0, No Iterations 0
diagonal:  Solving for rhog, Initial residual = 0, Final residual = 0, No Iterations 0
GAMG:  Solving for T, Initial residual = 0.00686321, Final residual = 1.06579e-13, No Iterations 1
ExecutionTime = 0.13 s  ClockTime = 0 s

Time = 0.66

diagonal:  Solving for rhos, Initial residual = 0, Final residual = 0, No Iterations 0
diagonal:  Solving for rhois, Initial residual = 0, Final residual = 0, No Iterations 0
diagonal:  Solving for rhoc, Initial residual = 0, Final residual = 0, No Iterations 0
diagonal:  Solving for rhoAr, Initial residual = 0, Final residual = 0, No Iterations 0
diagonal:  Solving for rhot1, Initial residual = 0, Final residual = 0, No Iterations 0
diagonal:  Solving for rhot2, Initial residual = 0, Final residual = 0, No Iterations 0
diagonal:  Solving for rhog, Initial residual = 0, Final residual = 0, No Iterations 0
GAMG:  Solving for T, Initial residual = 0.00675557, Final residual = 1.05513e-13, No Iterations 1
ExecutionTime = 0.14 s  ClockTime = 0 s

Time = 0.67

diagonal:  Solving for rhos, Initial residual = 0, Final residual = 0, No Iterations 0
diagonal:  Solving for rhois, Initial residual = 0, Final residual = 0, No Iterations 0
diagonal:  Solving for rhoc, Initial residual = 0, Final residual = 0, No Iterations 0
diagonal:  Solving for rhoAr, Initial residual = 0, Final residual = 0, No Iterations 0
diagonal:  Solving for rhot1, Initial residual = 0, Final residual = 0, No Iterations 0
diagonal:  Solving for rhot2, Initial residual = 0, Final residual = 0, No Iterations 0
diagonal:  Solving for rhog, Initial residual = 0, Final residual = 0, No Iterations 0
GAMG:  Solving for T, Initial residual = 0.00665139, Final residual = 1.03464e-13, No Iterations 1
ExecutionTime = 0.14 s  ClockTime = 0 s

Time = 0.68

diagonal:  Solving for rhos, Initial residual = 0, Final residual = 0, No Iterations 0
diagonal:  Solving for rhois, Initial residual = 0, Final residual = 0, No Iterations 0
diagonal:  Solving for rhoc, Initial residual = 0, Final residual = 0, No Iterations 0
diagonal:  Solving for rhoAr, Initial residual = 0, Final residual = 0, No Iterations 0
diagonal:  Solving for rhot1, Initial residual = 0, Final residual = 0, No Iterations 0
diagonal:  Solving for rhot2, Initial residual = 0, Final residual = 0, No Iterations 0
diagonal:  Solving for rhog, Initial residual = 0, Final residual = 0, No Iterations 0
GAMG:  Solving for T, Initial residual = 0.00655052, Final residual = 1.00499e-13, No Iterations 1
ExecutionTime = 0.14 s  ClockTime = 0 s

Time = 0.69

diagonal:  Solving for rhos, Initial residual = 0, Final residual = 0, No Iterations 0
diagonal:  Solving for rhois, Initial residual = 0, Final residual = 0, No Iterations 0
diagonal:  Solving for rhoc, Initial residual = 0, Final residual = 0, No Iterations 0
diagonal:  Solving for rhoAr, Initial residual = 0, Final residual = 0, No Iterations 0
diagonal:  Solving for rhot1, Initial residual = 0, Final residual = 0, No Iterations 0
diagonal:  Solving for rhot2, Initial residual = 0, Final residual = 0, No Iterations 0
diagonal:  Solving for rhog, Initial residual = 0, Final residual = 0, No Iterations 0
GAMG:  Solving for T, Initial residual = 0.00645279, Final residual = 9.89876e-14, No Iterations 1
ExecutionTime = 0.14 s  ClockTime = 0 s

Time = 0.7

diagonal:  Solving for rhos, Initial residual = 0, Final residual = 0, No Iterations 0
diagonal:  Solving for rhois, Initial residual = 0, Final residual = 0, No Iterations 0
diagonal:  Solving for rhoc, Initial residual = 0, Final residual = 0, No Iterations 0
diagonal:  Solving for rhoAr, Initial residual = 0, Final residual = 0, No Iterations 0
diagonal:  Solving for rhot1, Initial residual = 0, Final residual = 0, No Iterations 0
diagonal:  Solving for rhot2, Initial residual = 0, Final residual = 0, No Iterations 0
diagonal:  Solving for rhog, Initial residual = 0, Final residual = 0, No Iterations 0
GAMG:  Solving for T, Initial residual = 0.00635807, Final residual = 9.58666e-14, No Iterations 1
ExecutionTime = 0.14 s  ClockTime = 0 s

Time = 0.71

diagonal:  Solving for rhos, Initial residual = 0, Final residual = 0, No Iterations 0
diagonal:  Solving for rhois, Initial residual = 0, Final residual = 0, No Iterations 0
diagonal:  Solving for rhoc, Initial residual = 0, Final residual = 0, No Iterations 0
diagonal:  Solving for rhoAr, Initial residual = 0, Final residual = 0, No Iterations 0
diagonal:  Solving for rhot1, Initial residual = 0, Final residual = 0, No Iterations 0
diagonal:  Solving for rhot2, Initial residual = 0, Final residual = 0, No Iterations 0
diagonal:  Solving for rhog, Initial residual = 0, Final residual = 0, No Iterations 0
GAMG:  Solving for T, Initial residual = 0.00626622, Final residual = 9.55412e-14, No Iterations 1
ExecutionTime = 0.15 s  ClockTime = 0 s

Time = 0.72

diagonal:  Solving for rhos, Initial residual = 0, Final residual = 0, No Iterations 0
diagonal:  Solving for rhois, Initial residual = 0, Final residual = 0, No Iterations 0
diagonal:  Solving for rhoc, Initial residual = 0, Final residual = 0, No Iterations 0
diagonal:  Solving for rhoAr, Initial residual = 0, Final residual = 0, No Iterations 0
diagonal:  Solving for rhot1, Initial residual = 0, Final residual = 0, No Iterations 0
diagonal:  Solving for rhot2, Initial residual = 0, Final residual = 0, No Iterations 0
diagonal:  Solving for rhog, Initial residual = 0, Final residual = 0, No Iterations 0
GAMG:  Solving for T, Initial residual = 0.00617602, Final residual = 9.24711e-14, No Iterations 1
ExecutionTime = 0.15 s  ClockTime = 0 s

Time = 0.73

diagonal:  Solving for rhos, Initial residual = 0, Final residual = 0, No Iterations 0
diagonal:  Solving for rhois, Initial residual = 0, Final residual = 0, No Iterations 0
diagonal:  Solving for rhoc, Initial residual = 0, Final residual = 0, No Iterations 0
diagonal:  Solving for rhoAr, Initial residual = 0, Final residual = 0, No Iterations 0
diagonal:  Solving for rhot1, Initial residual = 0, Final residual = 0, No Iterations 0
diagonal:  Solving for rhot2, Initial residual = 0, Final residual = 0, No Iterations 0
diagonal:  Solving for rhog, Initial residual = 0, Final residual = 0, No Iterations 0
GAMG:  Solving for T, Initial residual = 0.00608816, Final residual = 9.11841e-14, No Iterations 1
ExecutionTime = 0.15 s  ClockTime = 0 s

Time = 0.74

diagonal:  Solving for rhos, Initial residual = 0, Final residual = 0, No Iterations 0
diagonal:  Solving for rhois, Initial residual = 0, Final residual = 0, No Iterations 0
diagonal:  Solving for rhoc, Initial residual = 0, Final residual = 0, No Iterations 0
diagonal:  Solving for rhoAr, Initial residual = 0, Final residual = 0, No Iterations 0
diagonal:  Solving for rhot1, Initial residual = 0, Final residual = 0, No Iterations 0
diagonal:  Solving for rhot2, Initial residual = 0, Final residual = 0, No Iterations 0
diagonal:  Solving for rhog, Initial residual = 0, Final residual = 0, No Iterations 0
GAMG:  Solving for T, Initial residual = 0.00600173, Final residual = 8.74157e-14, No Iterations 1
ExecutionTime = 0.15 s  ClockTime = 0 s

Time = 0.75

diagonal:  Solving for rhos, Initial residual = 0, Final residual = 0, No Iterations 0
diagonal:  Solving for rhois, Initial residual = 0, Final residual = 0, No Iterations 0
diagonal:  Solving for rhoc, Initial residual = 0, Final residual = 0, No Iterations 0
diagonal:  Solving for rhoAr, Initial residual = 0, Final residual = 0, No Iterations 0
diagonal:  Solving for rhot1, Initial residual = 0, Final residual = 0, No Iterations 0
diagonal:  Solving for rhot2, Initial residual = 0, Final residual = 0, No Iterations 0
diagonal:  Solving for rhog, Initial residual = 0, Final residual = 0, No Iterations 0
GAMG:  Solving for T, Initial residual = 0.0059175, Final residual = 8.44284e-14, No Iterations 1
ExecutionTime = 0.15 s  ClockTime = 0 s

Time = 0.76

diagonal:  Solving for rhos, Initial residual = 0, Final residual = 0, No Iterations 0
diagonal:  Solving for rhois, Initial residual = 0, Final residual = 0, No Iterations 0
diagonal:  Solving for rhoc, Initial residual = 0, Final residual = 0, No Iterations 0
diagonal:  Solving for rhoAr, Initial residual = 0, Final residual = 0, No Iterations 0
diagonal:  Solving for rhot1, Initial residual = 0, Final residual = 0, No Iterations 0
diagonal:  Solving for rhot2, Initial residual = 0, Final residual = 0, No Iterations 0
diagonal:  Solving for rhog, Initial residual = 0, Final residual = 0, No Iterations 0
GAMG:  Solving for T, Initial residual = 0.0058356, Final residual = 8.56293e-14, No Iterations 1
ExecutionTime = 0.15 s  ClockTime = 0 s

Time = 0.77

diagonal:  Solving for rhos, Initial residual = 0, Final residual = 0, No Iterations 0
diagonal:  Solving for rhois, Initial residual = 0, Final residual = 0, No Iterations 0
diagonal:  Solving for rhoc, Initial residual = 0, Final residual = 0, No Iterations 0
diagonal:  Solving for rhoAr, Initial residual = 0, Final residual = 0, No Iterations 0
diagonal:  Solving for rhot1, Initial residual = 0, Final residual = 0, No Iterations 0
diagonal:  Solving for rhot2, Initial residual = 0, Final residual = 0, No Iterations 0
diagonal:  Solving for rhog, Initial residual = 0, Final residual = 0, No Iterations 0
GAMG:  Solving for T, Initial residual = 0.00575595, Final residual = 8.36977e-14, No Iterations 1
ExecutionTime = 0.16 s  ClockTime = 0 s

Time = 0.78

diagonal:  Solving for rhos, Initial residual = 0, Final residual = 0, No Iterations 0
diagonal:  Solving for rhois, Initial residual = 0, Final residual = 0, No Iterations 0
diagonal:  Solving for rhoc, Initial residual = 0, Final residual = 0, No Iterations 0
diagonal:  Solving for rhoAr, Initial residual = 0, Final residual = 0, No Iterations 0
diagonal:  Solving for rhot1, Initial residual = 0, Final residual = 0, No Iterations 0
diagonal:  Solving for rhot2, Initial residual = 0, Final residual = 0, No Iterations 0
diagonal:  Solving for rhog, Initial residual = 0, Final residual = 0, No Iterations 0
GAMG:  Solving for T, Initial residual = 0.00567846, Final residual = 8.15312e-14, No Iterations 1
ExecutionTime = 0.16 s  ClockTime = 0 s

Time = 0.79

diagonal:  Solving for rhos, Initial residual = 0, Final residual = 0, No Iterations 0
diagonal:  Solving for rhois, Initial residual = 0, Final residual = 0, No Iterations 0
diagonal:  Solving for rhoc, Initial residual = 0, Final residual = 0, No Iterations 0
diagonal:  Solving for rhoAr, Initial residual = 0, Final residual = 0, No Iterations 0
diagonal:  Solving for rhot1, Initial residual = 0, Final residual = 0, No Iterations 0
diagonal:  Solving for rhot2, Initial residual = 0, Final residual = 0, No Iterations 0
diagonal:  Solving for rhog, Initial residual = 0, Final residual = 0, No Iterations 0
GAMG:  Solving for T, Initial residual = 0.00560303, Final residual = 8.05225e-14, No Iterations 1
ExecutionTime = 0.16 s  ClockTime = 0 s

Time = 0.8

diagonal:  Solving for rhos, Initial residual = 0, Final residual = 0, No Iterations 0
diagonal:  Solving for rhois, Initial residual = 0, Final residual = 0, No Iterations 0
diagonal:  Solving for rhoc, Initial residual = 0, Final residual = 0, No Iterations 0
diagonal:  Solving for rhoAr, Initial residual = 0, Final residual = 0, No Iterations 0
diagonal:  Solving for rhot1, Initial residual = 0, Final residual = 0, No Iterations 0
diagonal:  Solving for rhot2, Initial residual = 0, Final residual = 0, No Iterations 0
diagonal:  Solving for rhog, Initial residual = 0, Final residual = 0, No Iterations 0
GAMG:  Solving for T, Initial residual = 0.00552962, Final residual = 7.75166e-14, No Iterations 1
ExecutionTime = 0.16 s  ClockTime = 0 s

Time = 0.81

diagonal:  Solving for rhos, Initial residual = 0, Final residual = 0, No Iterations 0
diagonal:  Solving for rhois, Initial residual = 0, Final residual = 0, No Iterations 0
diagonal:  Solving for rhoc, Initial residual = 0, Final residual = 0, No Iterations 0
diagonal:  Solving for rhoAr, Initial residual = 0, Final residual = 0, No Iterations 0
diagonal:  Solving for rhot1, Initial residual = 0, Final residual = 0, No Iterations 0
diagonal:  Solving for rhot2, Initial residual = 0, Final residual = 0, No Iterations 0
diagonal:  Solving for rhog, Initial residual = 0, Final residual = 0, No Iterations 0
GAMG:  Solving for T, Initial residual = 0.00545815, Final residual = 7.78364e-14, No Iterations 1
ExecutionTime = 0.16 s  ClockTime = 0 s

Time = 0.82

diagonal:  Solving for rhos, Initial residual = 0, Final residual = 0, No Iterations 0
diagonal:  Solving for rhois, Initial residual = 0, Final residual = 0, No Iterations 0
diagonal:  Solving for rhoc, Initial residual = 0, Final residual = 0, No Iterations 0
diagonal:  Solving for rhoAr, Initial residual = 0, Final residual = 0, No Iterations 0
diagonal:  Solving for rhot1, Initial residual = 0, Final residual = 0, No Iterations 0
diagonal:  Solving for rhot2, Initial residual = 0, Final residual = 0, No Iterations 0
diagonal:  Solving for rhog, Initial residual = 0, Final residual = 0, No Iterations 0
GAMG:  Solving for T, Initial residual = 0.00538855, Final residual = 7.52559e-14, No Iterations 1
ExecutionTime = 0.17 s  ClockTime = 0 s

Time = 0.83

diagonal:  Solving for rhos, Initial residual = 0, Final residual = 0, No Iterations 0
diagonal:  Solving for rhois, Initial residual = 0, Final residual = 0, No Iterations 0
diagonal:  Solving for rhoc, Initial residual = 0, Final residual = 0, No Iterations 0
diagonal:  Solving for rhoAr, Initial residual = 0, Final residual = 0, No Iterations 0
diagonal:  Solving for rhot1, Initial residual = 0, Final residual = 0, No Iterations 0
diagonal:  Solving for rhot2, Initial residual = 0, Final residual = 0, No Iterations 0
diagonal:  Solving for rhog, Initial residual = 0, Final residual = 0, No Iterations 0
GAMG:  Solving for T, Initial residual = 0.00532074, Final residual = 7.5043e-14, No Iterations 1
ExecutionTime = 0.17 s  ClockTime = 0 s

Time = 0.84

diagonal:  Solving for rhos, Initial residual = 0, Final residual = 0, No Iterations 0
diagonal:  Solving for rhois, Initial residual = 0, Final residual = 0, No Iterations 0
diagonal:  Solving for rhoc, Initial residual = 0, Final residual = 0, No Iterations 0
diagonal:  Solving for rhoAr, Initial residual = 0, Final residual = 0, No Iterations 0
diagonal:  Solving for rhot1, Initial residual = 0, Final residual = 0, No Iterations 0
diagonal:  Solving for rhot2, Initial residual = 0, Final residual = 0, No Iterations 0
diagonal:  Solving for rhog, Initial residual = 0, Final residual = 0, No Iterations 0
GAMG:  Solving for T, Initial residual = 0.00525466, Final residual = 7.28613e-14, No Iterations 1
ExecutionTime = 0.17 s  ClockTime = 0 s

Time = 0.85

diagonal:  Solving for rhos, Initial residual = 0, Final residual = 0, No Iterations 0
diagonal:  Solving for rhois, Initial residual = 0, Final residual = 0, No Iterations 0
diagonal:  Solving for rhoc, Initial residual = 0, Final residual = 0, No Iterations 0
diagonal:  Solving for rhoAr, Initial residual = 0, Final residual = 0, No Iterations 0
diagonal:  Solving for rhot1, Initial residual = 0, Final residual = 0, No Iterations 0
diagonal:  Solving for rhot2, Initial residual = 0, Final residual = 0, No Iterations 0
diagonal:  Solving for rhog, Initial residual = 0, Final residual = 0, No Iterations 0
GAMG:  Solving for T, Initial residual = 0.00519024, Final residual = 7.08394e-14, No Iterations 1
ExecutionTime = 0.17 s  ClockTime = 0 s

Time = 0.86

diagonal:  Solving for rhos, Initial residual = 0, Final residual = 0, No Iterations 0
diagonal:  Solving for rhois, Initial residual = 0, Final residual = 0, No Iterations 0
diagonal:  Solving for rhoc, Initial residual = 0, Final residual = 0, No Iterations 0
diagonal:  Solving for rhoAr, Initial residual = 0, Final residual = 0, No Iterations 0
diagonal:  Solving for rhot1, Initial residual = 0, Final residual = 0, No Iterations 0
diagonal:  Solving for rhot2, Initial residual = 0, Final residual = 0, No Iterations 0
diagonal:  Solving for rhog, Initial residual = 0, Final residual = 0, No Iterations 0
GAMG:  Solving for T, Initial residual = 0.00512743, Final residual = 7.17315e-14, No Iterations 1
ExecutionTime = 0.17 s  ClockTime = 0 s

Time = 0.87

diagonal:  Solving for rhos, Initial residual = 0, Final residual = 0, No Iterations 0
diagonal:  Solving for rhois, Initial residual = 0, Final residual = 0, No Iterations 0
diagonal:  Solving for rhoc, Initial residual = 0, Final residual = 0, No Iterations 0
diagonal:  Solving for rhoAr, Initial residual = 0, Final residual = 0, No Iterations 0
diagonal:  Solving for rhot1, Initial residual = 0, Final residual = 0, No Iterations 0
diagonal:  Solving for rhot2, Initial residual = 0, Final residual = 0, No Iterations 0
diagonal:  Solving for rhog, Initial residual = 0, Final residual = 0, No Iterations 0
GAMG:  Solving for T, Initial residual = 0.00506616, Final residual = 6.90244e-14, No Iterations 1
ExecutionTime = 0.18 s  ClockTime = 0 s

Time = 0.88

diagonal:  Solving for rhos, Initial residual = 0, Final residual = 0, No Iterations 0
diagonal:  Solving for rhois, Initial residual = 0, Final residual = 0, No Iterations 0
diagonal:  Solving for rhoc, Initial residual = 0, Final residual = 0, No Iterations 0
diagonal:  Solving for rhoAr, Initial residual = 0, Final residual = 0, No Iterations 0
diagonal:  Solving for rhot1, Initial residual = 0, Final residual = 0, No Iterations 0
diagonal:  Solving for rhot2, Initial residual = 0, Final residual = 0, No Iterations 0
diagonal:  Solving for rhog, Initial residual = 0, Final residual = 0, No Iterations 0
GAMG:  Solving for T, Initial residual = 0.00500638, Final residual = 6.97381e-14, No Iterations 1
ExecutionTime = 0.18 s  ClockTime = 0 s

Time = 0.89

diagonal:  Solving for rhos, Initial residual = 0, Final residual = 0, No Iterations 0
diagonal:  Solving for rhois, Initial residual = 0, Final residual = 0, No Iterations 0
diagonal:  Solving for rhoc, Initial residual = 0, Final residual = 0, No Iterations 0
diagonal:  Solving for rhoAr, Initial residual = 0, Final residual = 0, No Iterations 0
diagonal:  Solving for rhot1, Initial residual = 0, Final residual = 0, No Iterations 0
diagonal:  Solving for rhot2, Initial residual = 0, Final residual = 0, No Iterations 0
diagonal:  Solving for rhog, Initial residual = 0, Final residual = 0, No Iterations 0
GAMG:  Solving for T, Initial residual = 0.00494803, Final residual = 6.73917e-14, No Iterations 1
ExecutionTime = 0.18 s  ClockTime = 0 s

Time = 0.9

diagonal:  Solving for rhos, Initial residual = 0, Final residual = 0, No Iterations 0
diagonal:  Solving for rhois, Initial residual = 0, Final residual = 0, No Iterations 0
diagonal:  Solving for rhoc, Initial residual = 0, Final residual = 0, No Iterations 0
diagonal:  Solving for rhoAr, Initial residual = 0, Final residual = 0, No Iterations 0
diagonal:  Solving for rhot1, Initial residual = 0, Final residual = 0, No Iterations 0
diagonal:  Solving for rhot2, Initial residual = 0, Final residual = 0, No Iterations 0
diagonal:  Solving for rhog, Initial residual = 0, Final residual = 0, No Iterations 0
GAMG:  Solving for T, Initial residual = 0.00489108, Final residual = 6.65682e-14, No Iterations 1
ExecutionTime = 0.18 s  ClockTime = 0 s

Time = 0.91

diagonal:  Solving for rhos, Initial residual = 0, Final residual = 0, No Iterations 0
diagonal:  Solving for rhois, Initial residual = 0, Final residual = 0, No Iterations 0
diagonal:  Solving for rhoc, Initial residual = 0, Final residual = 0, No Iterations 0
diagonal:  Solving for rhoAr, Initial residual = 0, Final residual = 0, No Iterations 0
diagonal:  Solving for rhot1, Initial residual = 0, Final residual = 0, No Iterations 0
diagonal:  Solving for rhot2, Initial residual = 0, Final residual = 0, No Iterations 0
diagonal:  Solving for rhog, Initial residual = 0, Final residual = 0, No Iterations 0
GAMG:  Solving for T, Initial residual = 0.00483544, Final residual = 6.44213e-14, No Iterations 1
ExecutionTime = 0.18 s  ClockTime = 0 s

Time = 0.92

diagonal:  Solving for rhos, Initial residual = 0, Final residual = 0, No Iterations 0
diagonal:  Solving for rhois, Initial residual = 0, Final residual = 0, No Iterations 0
diagonal:  Solving for rhoc, Initial residual = 0, Final residual = 0, No Iterations 0
diagonal:  Solving for rhoAr, Initial residual = 0, Final residual = 0, No Iterations 0
diagonal:  Solving for rhot1, Initial residual = 0, Final residual = 0, No Iterations 0
diagonal:  Solving for rhot2, Initial residual = 0, Final residual = 0, No Iterations 0
diagonal:  Solving for rhog, Initial residual = 0, Final residual = 0, No Iterations 0
GAMG:  Solving for T, Initial residual = 0.00478107, Final residual = 6.44416e-14, No Iterations 1
ExecutionTime = 0.19 s  ClockTime = 0 s

Time = 0.93

diagonal:  Solving for rhos, Initial residual = 0, Final residual = 0, No Iterations 0
diagonal:  Solving for rhois, Initial residual = 0, Final residual = 0, No Iterations 0
diagonal:  Solving for rhoc, Initial residual = 0, Final residual = 0, No Iterations 0
diagonal:  Solving for rhoAr, Initial residual = 0, Final residual = 0, No Iterations 0
diagonal:  Solving for rhot1, Initial residual = 0, Final residual = 0, No Iterations 0
diagonal:  Solving for rhot2, Initial residual = 0, Final residual = 0, No Iterations 0
diagonal:  Solving for rhog, Initial residual = 0, Final residual = 0, No Iterations 0
GAMG:  Solving for T, Initial residual = 0.00472795, Final residual = 6.37673e-14, No Iterations 1
ExecutionTime = 0.19 s  ClockTime = 0 s

Time = 0.94

diagonal:  Solving for rhos, Initial residual = 0, Final residual = 0, No Iterations 0
diagonal:  Solving for rhois, Initial residual = 0, Final residual = 0, No Iterations 0
diagonal:  Solving for rhoc, Initial residual = 0, Final residual = 0, No Iterations 0
diagonal:  Solving for rhoAr, Initial residual = 0, Final residual = 0, No Iterations 0
diagonal:  Solving for rhot1, Initial residual = 0, Final residual = 0, No Iterations 0
diagonal:  Solving for rhot2, Initial residual = 0, Final residual = 0, No Iterations 0
diagonal:  Solving for rhog, Initial residual = 0, Final residual = 0, No Iterations 0
GAMG:  Solving for T, Initial residual = 0.00467601, Final residual = 6.23566e-14, No Iterations 1
ExecutionTime = 0.19 s  ClockTime = 0 s

Time = 0.95

diagonal:  Solving for rhos, Initial residual = 0, Final residual = 0, No Iterations 0
diagonal:  Solving for rhois, Initial residual = 0, Final residual = 0, No Iterations 0
diagonal:  Solving for rhoc, Initial residual = 0, Final residual = 0, No Iterations 0
diagonal:  Solving for rhoAr, Initial residual = 0, Final residual = 0, No Iterations 0
diagonal:  Solving for rhot1, Initial residual = 0, Final residual = 0, No Iterations 0
diagonal:  Solving for rhot2, Initial residual = 0, Final residual = 0, No Iterations 0
diagonal:  Solving for rhog, Initial residual = 0, Final residual = 0, No Iterations 0
GAMG:  Solving for T, Initial residual = 0.00462523, Final residual = 6.09124e-14, No Iterations 1
ExecutionTime = 0.19 s  ClockTime = 0 s

Time = 0.96

diagonal:  Solving for rhos, Initial residual = 0, Final residual = 0, No Iterations 0
diagonal:  Solving for rhois, Initial residual = 0, Final residual = 0, No Iterations 0
diagonal:  Solving for rhoc, Initial residual = 0, Final residual = 0, No Iterations 0
diagonal:  Solving for rhoAr, Initial residual = 0, Final residual = 0, No Iterations 0
diagonal:  Solving for rhot1, Initial residual = 0, Final residual = 0, No Iterations 0
diagonal:  Solving for rhot2, Initial residual = 0, Final residual = 0, No Iterations 0
diagonal:  Solving for rhog, Initial residual = 0, Final residual = 0, No Iterations 0
GAMG:  Solving for T, Initial residual = 0.00457559, Final residual = 6.04576e-14, No Iterations 1
ExecutionTime = 0.19 s  ClockTime = 0 s

Time = 0.97

diagonal:  Solving for rhos, Initial residual = 0, Final residual = 0, No Iterations 0
diagonal:  Solving for rhois, Initial residual = 0, Final residual = 0, No Iterations 0
diagonal:  Solving for rhoc, Initial residual = 0, Final residual = 0, No Iterations 0
diagonal:  Solving for rhoAr, Initial residual = 0, Final residual = 0, No Iterations 0
diagonal:  Solving for rhot1, Initial residual = 0, Final residual = 0, No Iterations 0
diagonal:  Solving for rhot2, Initial residual = 0, Final residual = 0, No Iterations 0
diagonal:  Solving for rhog, Initial residual = 0, Final residual = 0, No Iterations 0
GAMG:  Solving for T, Initial residual = 0.00452703, Final residual = 5.8649e-14, No Iterations 1
ExecutionTime = 0.19 s  ClockTime = 0 s

Time = 0.98

diagonal:  Solving for rhos, Initial residual = 0, Final residual = 0, No Iterations 0
diagonal:  Solving for rhois, Initial residual = 0, Final residual = 0, No Iterations 0
diagonal:  Solving for rhoc, Initial residual = 0, Final residual = 0, No Iterations 0
diagonal:  Solving for rhoAr, Initial residual = 0, Final residual = 0, No Iterations 0
diagonal:  Solving for rhot1, Initial residual = 0, Final residual = 0, No Iterations 0
diagonal:  Solving for rhot2, Initial residual = 0, Final residual = 0, No Iterations 0
diagonal:  Solving for rhog, Initial residual = 0, Final residual = 0, No Iterations 0
GAMG:  Solving for T, Initial residual = 0.00447954, Final residual = 5.88007e-14, No Iterations 1
ExecutionTime = 0.2 s  ClockTime = 0 s

Time = 0.99

diagonal:  Solving for rhos, Initial residual = 0, Final residual = 0, No Iterations 0
diagonal:  Solving for rhois, Initial residual = 0, Final residual = 0, No Iterations 0
diagonal:  Solving for rhoc, Initial residual = 0, Final residual = 0, No Iterations 0
diagonal:  Solving for rhoAr, Initial residual = 0, Final residual = 0, No Iterations 0
diagonal:  Solving for rhot1, Initial residual = 0, Final residual = 0, No Iterations 0
diagonal:  Solving for rhot2, Initial residual = 0, Final residual = 0, No Iterations 0
diagonal:  Solving for rhog, Initial residual = 0, Final residual = 0, No Iterations 0
GAMG:  Solving for T, Initial residual = 0.00443306, Final residual = 5.84567e-14, No Iterations 1
ExecutionTime = 0.2 s  ClockTime = 0 s

Time = 1

diagonal:  Solving for rhos, Initial residual = 0, Final residual = 0, No Iterations 0
diagonal:  Solving for rhois, Initial residual = 0, Final residual = 0, No Iterations 0
diagonal:  Solving for rhoc, Initial residual = 0, Final residual = 0, No Iterations 0
diagonal:  Solving for rhoAr, Initial residual = 0, Final residual = 0, No Iterations 0
diagonal:  Solving for rhot1, Initial residual = 0, Final residual = 0, No Iterations 0
diagonal:  Solving for rhot2, Initial residual = 0, Final residual = 0, No Iterations 0
diagonal:  Solving for rhog, Initial residual = 0, Final residual = 0, No Iterations 0
GAMG:  Solving for T, Initial residual = 0.00438758, Final residual = 5.54464e-14, No Iterations 1
ExecutionTime = 0.21 s  ClockTime = 1 s

Time = 1.01

diagonal:  Solving for rhos, Initial residual = 0, Final residual = 0, No Iterations 0
diagonal:  Solving for rhois, Initial residual = 0, Final residual = 0, No Iterations 0
diagonal:  Solving for rhoc, Initial residual = 0, Final residual = 0, No Iterations 0
diagonal:  Solving for rhoAr, Initial residual = 0, Final residual = 0, No Iterations 0
diagonal:  Solving for rhot1, Initial residual = 0, Final residual = 0, No Iterations 0
diagonal:  Solving for rhot2, Initial residual = 0, Final residual = 0, No Iterations 0
diagonal:  Solving for rhog, Initial residual = 0, Final residual = 0, No Iterations 0
GAMG:  Solving for T, Initial residual = 0.00434307, Final residual = 5.48857e-14, No Iterations 1
ExecutionTime = 0.21 s  ClockTime = 1 s

Time = 1.02

diagonal:  Solving for rhos, Initial residual = 0, Final residual = 0, No Iterations 0
diagonal:  Solving for rhois, Initial residual = 0, Final residual = 0, No Iterations 0
diagonal:  Solving for rhoc, Initial residual = 0, Final residual = 0, No Iterations 0
diagonal:  Solving for rhoAr, Initial residual = 0, Final residual = 0, No Iterations 0
diagonal:  Solving for rhot1, Initial residual = 0, Final residual = 0, No Iterations 0
diagonal:  Solving for rhot2, Initial residual = 0, Final residual = 0, No Iterations 0
diagonal:  Solving for rhog, Initial residual = 0, Final residual = 0, No Iterations 0
GAMG:  Solving for T, Initial residual = 0.00429948, Final residual = 5.64665e-14, No Iterations 1
ExecutionTime = 0.21 s  ClockTime = 1 s

Time = 1.03

diagonal:  Solving for rhos, Initial residual = 0, Final residual = 0, No Iterations 0
diagonal:  Solving for rhois, Initial residual = 0, Final residual = 0, No Iterations 0
diagonal:  Solving for rhoc, Initial residual = 0, Final residual = 0, No Iterations 0
diagonal:  Solving for rhoAr, Initial residual = 0, Final residual = 0, No Iterations 0
diagonal:  Solving for rhot1, Initial residual = 0, Final residual = 0, No Iterations 0
diagonal:  Solving for rhot2, Initial residual = 0, Final residual = 0, No Iterations 0
[...]
GAMG:  Solving for T, Initial residual = 0.000164575, Final residual = 2.58866e-16, No Iterations 1
ExecutionTime = 7.9 s  ClockTime = 8 s

Time = 40.08

diagonal:  Solving for rhos, Initial residual = 0, Final residual = 0, No Iterations 0
diagonal:  Solving for rhois, Initial residual = 0, Final residual = 0, No Iterations 0
diagonal:  Solving for rhoc, Initial residual = 0, Final residual = 0, No Iterations 0
diagonal:  Solving for rhoAr, Initial residual = 0, Final residual = 0, No Iterations 0
diagonal:  Solving for rhot1, Initial residual = 0, Final residual = 0, No Iterations 0
diagonal:  Solving for rhot2, Initial residual = 0, Final residual = 0, No Iterations 0
diagonal:  Solving for rhog, Initial residual = 0, Final residual = 0, No Iterations 0
GAMG:  Solving for T, Initial residual = 0.00016657, Final residual = 2.50687e-16, No Iterations 1
ExecutionTime = 7.9 s  ClockTime = 8 s

Time = 40.09

diagonal:  Solving for rhos, Initial residual = 0, Final residual = 0, No Iterations 0
diagonal:  Solving for rhois, Initial residual = 0, Final residual = 0, No Iterations 0
diagonal:  Solving for rhoc, Initial residual = 0, Final residual = 0, No Iterations 0
diagonal:  Solving for rhoAr, Initial residual = 0, Final residual = 0, No Iterations 0
diagonal:  Solving for rhot1, Initial residual = 0, Final residual = 0, No Iterations 0
diagonal:  Solving for rhot2, Initial residual = 0, Final residual = 0, No Iterations 0
diagonal:  Solving for rhog, Initial residual = 0, Final residual = 0, No Iterations 0
GAMG:  Solving for T, Initial residual = 0.000168681, Final residual = 2.6465e-16, No Iterations 1
ExecutionTime = 7.91 s  ClockTime = 8 s

Time = 40.1

diagonal:  Solving for rhos, Initial residual = 0, Final residual = 0, No Iterations 0
diagonal:  Solving for rhois, Initial residual = 0, Final residual = 0, No Iterations 0
diagonal:  Solving for rhoc, Initial residual = 0, Final residual = 0, No Iterations 0
diagonal:  Solving for rhoAr, Initial residual = 0, Final residual = 0, No Iterations 0
diagonal:  Solving for rhot1, Initial residual = 0, Final residual = 0, No Iterations 0
diagonal:  Solving for rhot2, Initial residual = 0, Final residual = 0, No Iterations 0
diagonal:  Solving for rhog, Initial residual = 0, Final residual = 0, No Iterations 0
GAMG:  Solving for T, Initial residual = 0.00017092, Final residual = 2.64013e-16, No Iterations 1
ExecutionTime = 7.91 s  ClockTime = 8 s

Time = 40.11

diagonal:  Solving for rhos, Initial residual = 0, Final residual = 0, No Iterations 0
diagonal:  Solving for rhois, Initial residual = 0, Final residual = 0, No Iterations 0
diagonal:  Solving for rhoc, Initial residual = 0, Final residual = 0, No Iterations 0
diagonal:  Solving for rhoAr, Initial residual = 0, Final residual = 0, No Iterations 0
diagonal:  Solving for rhot1, Initial residual = 0, Final residual = 0, No Iterations 0
diagonal:  Solving for rhot2, Initial residual = 0, Final residual = 0, No Iterations 0
diagonal:  Solving for rhog, Initial residual = 0, Final residual = 0, No Iterations 0
GAMG:  Solving for T, Initial residual = 0.000173301, Final residual = 2.69908e-16, No Iterations 1
ExecutionTime = 7.91 s  ClockTime = 8 s

Time = 40.12

diagonal:  Solving for rhos, Initial residual = 0, Final residual = 0, No Iterations 0
diagonal:  Solving for rhois, Initial residual = 0, Final residual = 0, No Iterations 0
diagonal:  Solving for rhoc, Initial residual = 0, Final residual = 0, No Iterations 0
diagonal:  Solving for rhoAr, Initial residual = 0, Final residual = 0, No Iterations 0
diagonal:  Solving for rhot1, Initial residual = 0, Final residual = 0, No Iterations 0
diagonal:  Solving for rhot2, Initial residual = 0, Final residual = 0, No Iterations 0
diagonal:  Solving for rhog, Initial residual = 0, Final residual = 0, No Iterations 0
GAMG:  Solving for T, Initial residual = 0.000175839, Final residual = 2.65242e-16, No Iterations 1
ExecutionTime = 7.91 s  ClockTime = 8 s

Time = 40.13

diagonal:  Solving for rhos, Initial residual = 0, Final residual = 0, No Iterations 0
diagonal:  Solving for rhois, Initial residual = 0, Final residual = 0, No Iterations 0
diagonal:  Solving for rhoc, Initial residual = 0, Final residual = 0, No Iterations 0
diagonal:  Solving for rhoAr, Initial residual = 0, Final residual = 0, No Iterations 0
diagonal:  Solving for rhot1, Initial residual = 0, Final residual = 0, No Iterations 0
diagonal:  Solving for rhot2, Initial residual = 0, Final residual = 0, No Iterations 0
diagonal:  Solving for rhog, Initial residual = 0, Final residual = 0, No Iterations 0
GAMG:  Solving for T, Initial residual = 0.000178552, Final residual = 2.71122e-16, No Iterations 1
ExecutionTime = 7.91 s  ClockTime = 8 s

Time = 40.14

diagonal:  Solving for rhos, Initial residual = 0, Final residual = 0, No Iterations 0
diagonal:  Solving for rhois, Initial residual = 0, Final residual = 0, No Iterations 0
diagonal:  Solving for rhoc, Initial residual = 0, Final residual = 0, No Iterations 0
diagonal:  Solving for rhoAr, Initial residual = 0, Final residual = 0, No Iterations 0
diagonal:  Solving for rhot1, Initial residual = 0, Final residual = 0, No Iterations 0
diagonal:  Solving for rhot2, Initial residual = 0, Final residual = 0, No Iterations 0
diagonal:  Solving for rhog, Initial residual = 0, Final residual = 0, No Iterations 0
GAMG:  Solving for T, Initial residual = 0.000181462, Final residual = 2.78495e-16, No Iterations 1
ExecutionTime = 7.92 s  ClockTime = 8 s

Time = 40.15

diagonal:  Solving for rhos, Initial residual = 0, Final residual = 0, No Iterations 0
diagonal:  Solving for rhois, Initial residual = 0, Final residual = 0, No Iterations 0
diagonal:  Solving for rhoc, Initial residual = 0, Final residual = 0, No Iterations 0
diagonal:  Solving for rhoAr, Initial residual = 0, Final residual = 0, No Iterations 0
diagonal:  Solving for rhot1, Initial residual = 0, Final residual = 0, No Iterations 0
diagonal:  Solving for rhot2, Initial residual = 0, Final residual = 0, No Iterations 0
diagonal:  Solving for rhog, Initial residual = 0, Final residual = 0, No Iterations 0
GAMG:  Solving for T, Initial residual = 0.000184596, Final residual = 2.7081e-16, No Iterations 1
ExecutionTime = 7.92 s  ClockTime = 8 s

Time = 40.16

diagonal:  Solving for rhos, Initial residual = 0, Final residual = 0, No Iterations 0
diagonal:  Solving for rhois, Initial residual = 0, Final residual = 0, No Iterations 0
diagonal:  Solving for rhoc, Initial residual = 0, Final residual = 0, No Iterations 0
diagonal:  Solving for rhoAr, Initial residual = 0, Final residual = 0, No Iterations 0
diagonal:  Solving for rhot1, Initial residual = 0, Final residual = 0, No Iterations 0
diagonal:  Solving for rhot2, Initial residual = 0, Final residual = 0, No Iterations 0
diagonal:  Solving for rhog, Initial residual = 0, Final residual = 0, No Iterations 0
GAMG:  Solving for T, Initial residual = 0.000187983, Final residual = 2.86183e-16, No Iterations 1
ExecutionTime = 7.92 s  ClockTime = 8 s

Time = 40.17

diagonal:  Solving for rhos, Initial residual = 0, Final residual = 0, No Iterations 0
diagonal:  Solving for rhois, Initial residual = 0, Final residual = 0, No Iterations 0
diagonal:  Solving for rhoc, Initial residual = 0, Final residual = 0, No Iterations 0
diagonal:  Solving for rhoAr, Initial residual = 0, Final residual = 0, No Iterations 0
diagonal:  Solving for rhot1, Initial residual = 0, Final residual = 0, No Iterations 0
diagonal:  Solving for rhot2, Initial residual = 0, Final residual = 0, No Iterations 0
diagonal:  Solving for rhog, Initial residual = 0, Final residual = 0, No Iterations 0
GAMG:  Solving for T, Initial residual = 0.00019166, Final residual = 2.89009e-16, No Iterations 1
ExecutionTime = 7.92 s  ClockTime = 8 s

Time = 40.18

diagonal:  Solving for rhos, Initial residual = 0, Final residual = 0, No Iterations 0
diagonal:  Solving for rhois, Initial residual = 0, Final residual = 0, No Iterations 0
diagonal:  Solving for rhoc, Initial residual = 0, Final residual = 0, No Iterations 0
diagonal:  Solving for rhoAr, Initial residual = 0, Final residual = 0, No Iterations 0
diagonal:  Solving for rhot1, Initial residual = 0, Final residual = 0, No Iterations 0
diagonal:  Solving for rhot2, Initial residual = 0, Final residual = 0, No Iterations 0
diagonal:  Solving for rhog, Initial residual = 0, Final residual = 0, No Iterations 0
GAMG:  Solving for T, Initial residual = 0.000195673, Final residual = 3.27863e-16, No Iterations 1
ExecutionTime = 7.92 s  ClockTime = 8 s

Time = 40.19

diagonal:  Solving for rhos, Initial residual = 0, Final residual = 0, No Iterations 0
diagonal:  Solving for rhois, Initial residual = 0, Final residual = 0, No Iterations 0
diagonal:  Solving for rhoc, Initial residual = 0, Final residual = 0, No Iterations 0
diagonal:  Solving for rhoAr, Initial residual = 0, Final residual = 0, No Iterations 0
diagonal:  Solving for rhot1, Initial residual = 0, Final residual = 0, No Iterations 0
diagonal:  Solving for rhot2, Initial residual = 0, Final residual = 0, No Iterations 0
diagonal:  Solving for rhog, Initial residual = 0, Final residual = 0, No Iterations 0
GAMG:  Solving for T, Initial residual = 0.000200079, Final residual = 3.34641e-16, No Iterations 1
ExecutionTime = 7.92 s  ClockTime = 8 s

Time = 40.2

diagonal:  Solving for rhos, Initial residual = 0, Final residual = 0, No Iterations 0
diagonal:  Solving for rhois, Initial residual = 0, Final residual = 0, No Iterations 0
diagonal:  Solving for rhoc, Initial residual = 0, Final residual = 0, No Iterations 0
diagonal:  Solving for rhoAr, Initial residual = 0, Final residual = 0, No Iterations 0
diagonal:  Solving for rhot1, Initial residual = 0, Final residual = 0, No Iterations 0
diagonal:  Solving for rhot2, Initial residual = 0, Final residual = 0, No Iterations 0
diagonal:  Solving for rhog, Initial residual = 0, Final residual = 0, No Iterations 0
GAMG:  Solving for T, Initial residual = 0.000204949, Final residual = 3.58892e-16, No Iterations 1
ExecutionTime = 7.92 s  ClockTime = 8 s

Time = 40.21

diagonal:  Solving for rhos, Initial residual = 0, Final residual = 0, No Iterations 0
diagonal:  Solving for rhois, Initial residual = 0, Final residual = 0, No Iterations 0
diagonal:  Solving for rhoc, Initial residual = 0, Final residual = 0, No Iterations 0
diagonal:  Solving for rhoAr, Initial residual = 0, Final residual = 0, No Iterations 0
diagonal:  Solving for rhot1, Initial residual = 0, Final residual = 0, No Iterations 0
diagonal:  Solving for rhot2, Initial residual = 0, Final residual = 0, No Iterations 0
diagonal:  Solving for rhog, Initial residual = 0, Final residual = 0, No Iterations 0
GAMG:  Solving for T, Initial residual = 0.000210372, Final residual = 4.60511e-16, No Iterations 1
ExecutionTime = 7.93 s  ClockTime = 8 s

Time = 40.22

diagonal:  Solving for rhos, Initial residual = 0, Final residual = 0, No Iterations 0
diagonal:  Solving for rhois, Initial residual = 0, Final residual = 0, No Iterations 0
diagonal:  Solving for rhoc, Initial residual = 0, Final residual = 0, No Iterations 0
diagonal:  Solving for rhoAr, Initial residual = 0, Final residual = 0, No Iterations 0
diagonal:  Solving for rhot1, Initial residual = 0, Final residual = 0, No Iterations 0
diagonal:  Solving for rhot2, Initial residual = 0, Final residual = 0, No Iterations 0
diagonal:  Solving for rhog, Initial residual = 0, Final residual = 0, No Iterations 0
GAMG:  Solving for T, Initial residual = 0.000216469, Final residual = 5.94386e-16, No Iterations 1
ExecutionTime = 7.94 s  ClockTime = 8 s

Time = 40.23

diagonal:  Solving for rhos, Initial residual = 0, Final residual = 0, No Iterations 0
diagonal:  Solving for rhois, Initial residual = 0, Final residual = 0, No Iterations 0
diagonal:  Solving for rhoc, Initial residual = 0, Final residual = 0, No Iterations 0
diagonal:  Solving for rhoAr, Initial residual = 0, Final residual = 0, No Iterations 0
diagonal:  Solving for rhot1, Initial residual = 0, Final residual = 0, No Iterations 0
diagonal:  Solving for rhot2, Initial residual = 0, Final residual = 0, No Iterations 0
diagonal:  Solving for rhog, Initial residual = 0, Final residual = 0, No Iterations 0
GAMG:  Solving for T, Initial residual = 0.000223398, Final residual = 8.51162e-16, No Iterations 1
ExecutionTime = 7.94 s  ClockTime = 8 s

Time = 40.24

diagonal:  Solving for rhos, Initial residual = 0, Final residual = 0, No Iterations 0
diagonal:  Solving for rhois, Initial residual = 0, Final residual = 0, No Iterations 0
diagonal:  Solving for rhoc, Initial residual = 0, Final residual = 0, No Iterations 0
diagonal:  Solving for rhoAr, Initial residual = 0, Final residual = 0, No Iterations 0
diagonal:  Solving for rhot1, Initial residual = 0, Final residual = 0, No Iterations 0
diagonal:  Solving for rhot2, Initial residual = 0, Final residual = 0, No Iterations 0
diagonal:  Solving for rhog, Initial residual = 0, Final residual = 0, No Iterations 0
GAMG:  Solving for T, Initial residual = 0.000231379, Final residual = 1.36745e-15, No Iterations 1
ExecutionTime = 7.94 s  ClockTime = 8 s

Time = 40.25

diagonal:  Solving for rhos, Initial residual = 0, Final residual = 0, No Iterations 0
diagonal:  Solving for rhois, Initial residual = 0, Final residual = 0, No Iterations 0
diagonal:  Solving for rhoc, Initial residual = 0, Final residual = 0, No Iterations 0
diagonal:  Solving for rhoAr, Initial residual = 0, Final residual = 0, No Iterations 0
diagonal:  Solving for rhot1, Initial residual = 0, Final residual = 0, No Iterations 0
diagonal:  Solving for rhot2, Initial residual = 0, Final residual = 0, No Iterations 0
diagonal:  Solving for rhog, Initial residual = 0, Final residual = 0, No Iterations 0
GAMG:  Solving for T, Initial residual = 0.000240727, Final residual = 2.33942e-15, No Iterations 1
ExecutionTime = 7.94 s  ClockTime = 8 s

Time = 40.26

diagonal:  Solving for rhos, Initial residual = 0, Final residual = 0, No Iterations 0
diagonal:  Solving for rhois, Initial residual = 0, Final residual = 0, No Iterations 0
diagonal:  Solving for rhoc, Initial residual = 0, Final residual = 0, No Iterations 0
diagonal:  Solving for rhoAr, Initial residual = 0, Final residual = 0, No Iterations 0
diagonal:  Solving for rhot1, Initial residual = 0, Final residual = 0, No Iterations 0
diagonal:  Solving for rhot2, Initial residual = 0, Final residual = 0, No Iterations 0
diagonal:  Solving for rhog, Initial residual = 0, Final residual = 0, No Iterations 0
GAMG:  Solving for T, Initial residual = 0.000251909, Final residual = 4.47754e-15, No Iterations 1
ExecutionTime = 7.94 s  ClockTime = 8 s

Time = 40.27

diagonal:  Solving for rhos, Initial residual = 0, Final residual = 0, No Iterations 0
diagonal:  Solving for rhois, Initial residual = 0, Final residual = 0, No Iterations 0
diagonal:  Solving for rhoc, Initial residual = 0, Final residual = 0, No Iterations 0
diagonal:  Solving for rhoAr, Initial residual = 0, Final residual = 0, No Iterations 0
diagonal:  Solving for rhot1, Initial residual = 0, Final residual = 0, No Iterations 0
diagonal:  Solving for rhot2, Initial residual = 0, Final residual = 0, No Iterations 0
diagonal:  Solving for rhog, Initial residual = 0, Final residual = 0, No Iterations 0
GAMG:  Solving for T, Initial residual = 0.000265667, Final residual = 9.41916e-15, No Iterations 1
ExecutionTime = 7.95 s  ClockTime = 8 s

Time = 40.28

diagonal:  Solving for rhos, Initial residual = 0, Final residual = 0, No Iterations 0
diagonal:  Solving for rhois, Initial residual = 0, Final residual = 0, No Iterations 0
diagonal:  Solving for rhoc, Initial residual = 0, Final residual = 0, No Iterations 0
diagonal:  Solving for rhoAr, Initial residual = 0, Final residual = 0, No Iterations 0
diagonal:  Solving for rhot1, Initial residual = 0, Final residual = 0, No Iterations 0
diagonal:  Solving for rhot2, Initial residual = 0, Final residual = 0, No Iterations 0
diagonal:  Solving for rhog, Initial residual = 0, Final residual = 0, No Iterations 0
GAMG:  Solving for T, Initial residual = 0.000283268, Final residual = 2.22691e-14, No Iterations 1
ExecutionTime = 7.95 s  ClockTime = 8 s

Time = 40.29

diagonal:  Solving for rhos, Initial residual = 0, Final residual = 0, No Iterations 0
diagonal:  Solving for rhois, Initial residual = 0, Final residual = 0, No Iterations 0
diagonal:  Solving for rhoc, Initial residual = 0, Final residual = 0, No Iterations 0
diagonal:  Solving for rhoAr, Initial residual = 0, Final residual = 0, No Iterations 0
diagonal:  Solving for rhot1, Initial residual = 0, Final residual = 0, No Iterations 0
diagonal:  Solving for rhot2, Initial residual = 0, Final residual = 0, No Iterations 0
diagonal:  Solving for rhog, Initial residual = 0, Final residual = 0, No Iterations 0
GAMG:  Solving for T, Initial residual = 0.000307125, Final residual = 6.1131e-14, No Iterations 1
ExecutionTime = 7.95 s  ClockTime = 8 s

Time = 40.3

diagonal:  Solving for rhos, Initial residual = 0, Final residual = 0, No Iterations 0
diagonal:  Solving for rhois, Initial residual = 0, Final residual = 0, No Iterations 0
diagonal:  Solving for rhoc, Initial residual = 0, Final residual = 0, No Iterations 0
diagonal:  Solving for rhoAr, Initial residual = 0, Final residual = 0, No Iterations 0
diagonal:  Solving for rhot1, Initial residual = 0, Final residual = 0, No Iterations 0
diagonal:  Solving for rhot2, Initial residual = 0, Final residual = 0, No Iterations 0
diagonal:  Solving for rhog, Initial residual = 0, Final residual = 0, No Iterations 0
GAMG:  Solving for T, Initial residual = 0.000342695, Final residual = 2.07733e-13, No Iterations 1
ExecutionTime = 7.95 s  ClockTime = 8 s

Time = 40.31

diagonal:  Solving for rhos, Initial residual = 0, Final residual = 0, No Iterations 0
diagonal:  Solving for rhois, Initial residual = 0, Final residual = 0, No Iterations 0
diagonal:  Solving for rhoc, Initial residual = 0, Final residual = 0, No Iterations 0
diagonal:  Solving for rhoAr, Initial residual = 0, Final residual = 0, No Iterations 0
diagonal:  Solving for rhot1, Initial residual = 0, Final residual = 0, No Iterations 0
diagonal:  Solving for rhot2, Initial residual = 0, Final residual = 0, No Iterations 0
diagonal:  Solving for rhog, Initial residual = 0, Final residual = 0, No Iterations 0
GAMG:  Solving for T, Initial residual = 0.000406784, Final residual = 9.73494e-13, No Iterations 1
ExecutionTime = 7.95 s  ClockTime = 8 s

Time = 40.32

diagonal:  Solving for rhos, Initial residual = 0, Final residual = 0, No Iterations 0
diagonal:  Solving for rhois, Initial residual = 0, Final residual = 0, No Iterations 0
diagonal:  Solving for rhoc, Initial residual = 0, Final residual = 0, No Iterations 0
diagonal:  Solving for rhoAr, Initial residual = 0, Final residual = 0, No Iterations 0
diagonal:  Solving for rhot1, Initial residual = 0, Final residual = 0, No Iterations 0
diagonal:  Solving for rhot2, Initial residual = 0, Final residual = 0, No Iterations 0
diagonal:  Solving for rhog, Initial residual = 0, Final residual = 0, No Iterations 0
GAMG:  Solving for T, Initial residual = 0.000620056, Final residual = 6.1032e-12, No Iterations 1
ExecutionTime = 7.95 s  ClockTime = 8 s

Time = 40.33

diagonal:  Solving for rhos, Initial residual = 0, Final residual = 0, No Iterations 0
diagonal:  Solving for rhois, Initial residual = 0, Final residual = 0, No Iterations 0
diagonal:  Solving for rhoc, Initial residual = 0, Final residual = 0, No Iterations 0
diagonal:  Solving for rhoAr, Initial residual = 0, Final residual = 0, No Iterations 0
diagonal:  Solving for rhot1, Initial residual = 0, Final residual = 0, No Iterations 0
diagonal:  Solving for rhot2, Initial residual = 0, Final residual = 0, No Iterations 0
diagonal:  Solving for rhog, Initial residual = 0, Final residual = 0, No Iterations 0
